/*--------------------------------*- C++ -*----------------------------------*\
| =========                 |                                                 |
| \\      /  F ield         | OpenFOAM: The Open Source CFD Toolbox           |
|  \\    /   O peration     | Version:  4.x                                   |
|   \\  /    A nd           | Web:      www.OpenFOAM.org                      |
|    \\/     M anipulation  |                                                 |
\*---------------------------------------------------------------------------*/
FoamFile
{
    version     2.0;
    format      ascii;
    class       dictionary;
    object      changeDictionaryDict;
}
// * * * * * * * * * * * * * * * * * * * * * * * * * * * * * * * * * * * * * //

boundary
{
    inlet
    {
        type        patch;
    }

    outlet
    {
        type        patch;
    }

    wall
    {
        type        wall;
    }


    "defaultFaces"
    {
        type        wall;
    }

    "procB.*"
    {
        type            processor;
    }

}

p
{
  internalField   uniform 0.0;

  boundaryField
  {
      inlet
      {
          type        totalPressure;
          p0       uniform 320.64128256513027;
      	  value    $internalField;
      }

      outlet
      {
          type        fixedValue;
          value          uniform 100.20040080160321;
      }

      wall
      {
          type        zeroGradient;
      }

      defaultFaces
      {
          type        zeroGradient;
      }

      "procB.*"
      {
          type            processor;
          value           uniform 0;
      }

  }
}


U
{
  internalField   uniform  (0 0 0);

  boundaryField
  {

      inlet
      {
          type        pressureInletOutletVelocity;
          value       $internalField;
      }

      outlet
      {
          type        pressureInletOutletVelocity;
          value       $internalField;
      }

      wall
      {
          // movingWallVelocity reduces to fixedValue if the mesh is not moving
          type        movingWallVelocity;
          value       uniform (0 0 0);
      }

      defaultFaces
      {
          type        slip;
          value       $internalField;
      }

      "procB.*"
      {
          type            processor;
          value           uniform  (0 0 0);
      }

  }
}


// ************************************************************************* //
