/*--------------------------------*- C++ -*----------------------------------*\
| =========                 |                                                 |
| \\      /  F ield         | OpenFOAM: The Open Source CFD Toolbox           |
|  \\    /   O peration     | Version:  v1906                                 |
|   \\  /    A nd           | Web:      www.OpenFOAM.com                      |
|    \\/     M anipulation  |                                                 |
\*---------------------------------------------------------------------------*/
FoamFile
{
    version     2.0;
    format      ascii;
    class       extendedFeatureEdgeMesh;
    location    "constant/extendedFeatureEdgeMesh";
    object      Pocket_Geometry.extendedFeatureEdgeMesh;
}
// * * * * * * * * * * * * * * * * * * * * * * * * * * * * * * * * * * * * * //

// points

402
(
(0.0363400019705296 0.00249999994412065 0)
(0.0363400019705296 0.00242735468782485 0.000598289130721241)
(0.0188400000333786 0.00501710176467896 0.000997963594272733)
(0.0188400000333786 0.0051153926178813 0)
(0.0363400019705296 0.00242735468782485 -0.000598289130721241)
(0.0188400000333786 0.00501710176467896 -0.000997963594272733)
(0.0363400019705296 0.00221363990567625 0.00116180791519582)
(0.0363400019705296 0.00187127687968314 0.0016578066861257)
(0.0363400019705296 0.001420161803253 0.00205745967105031)
(0.0363400019705296 0.000886512221768498 0.00233754073269665)
(0.0363400019705296 0.000301341700833291 0.00248177209869027)
(0.0363400019705296 -0.000301341700833291 0.00248177209869027)
(0.0363400019705296 -0.000886512221768498 0.00233754073269665)
(0.0363400019705296 -0.001420161803253 0.00205745967105031)
(0.0363400019705296 -0.00187127687968314 0.0016578066861257)
(0.0363400019705296 -0.00221363990567625 0.00116180791519582)
(0.0363400019705296 -0.00242735468782485 0.000598289130721241)
(0.0363400019705296 -0.00249999994412065 2.52660787820189e-18)
(0.0363400019705296 -0.00242735468782485 -0.000598289130721241)
(0.0363400019705296 -0.00221363990567625 -0.00116180791519582)
(0.0363400019705296 -0.00187127687968314 -0.0016578066861257)
(0.0363400019705296 -0.001420161803253 -0.00205745967105031)
(0.0363400019705296 -0.000886512221768498 -0.00233754073269665)
(0.0188400000333786 0.00472600664943457 0.00195757602341473)
(0.0363400019705296 -0.000301341700833291 -0.00248177209869027)
(0.0188400000333786 0.00425329338759184 0.00284195970743895)
(0.0363400019705296 0.000301341700833291 -0.00248177209869027)
(0.0188400000333786 0.00361712882295251 0.00361712882295251)
(0.0188400000333786 0.00284195970743895 0.00425329338759184)
(0.0363400019705296 0.000886512221768498 -0.00233754073269665)
(0.0188400000333786 0.00195757602341473 0.00472600664943457)
(0.0363400019705296 0.001420161803253 -0.00205745967105031)
(0.0188400000333786 0.000997963594272733 0.00501710176467896)
(0.0188400000333786 3.13227474429083e-19 0.0051153926178813)
(0.0363400019705296 0.00187127687968314 -0.0016578066861257)
(0.0188400000333786 -0.000997963594272733 0.00501710176467896)
(0.0363400019705296 0.00221363990567625 -0.00116180791519582)
(0.0188400000333786 -0.00195757602341473 0.00472600664943457)
(0.0188400000333786 -0.00284195970743895 0.00425329338759184)
(0.0188400000333786 -0.00361712882295251 0.00361712882295251)
(0.0188400000333786 -0.00425329338759184 0.00284195970743895)
(0.0188400000333786 -0.00472600664943457 0.00195757602341473)
(0.0188400000333786 -0.00501710176467896 0.000997963594272733)
(0.0188400000333786 -0.0051153926178813 -3.91692643433612e-18)
(0.0188400000333786 -0.00501710176467896 -0.000997963594272733)
(0.0188400000333786 -0.00472600664943457 -0.00195757602341473)
(0.0188400000333786 -0.00425329338759184 -0.00284195970743895)
(0.0188400000333786 -0.00361712882295251 -0.00361712882295251)
(0.0188400000333786 -0.00284195970743895 -0.00425329338759184)
(0.0188400000333786 -0.00195757602341473 -0.00472600664943457)
(0.0188400000333786 -0.000997963594272733 -0.00501710176467896)
(0.0188400000333786 1.2690461028362e-17 -0.0051153926178813)
(0.0188400000333786 0.000997963594272733 -0.00501710176467896)
(0.0188400000333786 0.00195757602341473 -0.00472600664943457)
(0.0188400000333786 0.00284195970743895 -0.00425329338759184)
(0.0188400000333786 0.00361712882295251 -0.00361712882295251)
(0.0188400000333786 0.00425329338759184 -0.00284195970743895)
(0.0188400000333786 0.00472600664943457 -0.00195757602341473)
(0.0363400019705296 0.00062487117247656 -0.000905282271560282)
(0.0363400019705296 0.000823361799120903 -0.000729434890672565)
(0.0363400019705296 0.000974001653958112 -0.000511195452418178)
(0.0363400019705296 0.000390065368264914 -0.00102851784322411)
(0.0363400019705296 0.00106803595554084 -0.000263247231487185)
(0.0363400019705296 0.000132590357679874 -0.00109197979327291)
(0.0363400019705296 0.00109999999403954 0)
(0.0363400019705296 -0.000132590357679874 -0.00109197979327291)
(0.0363400019705296 0.00106803595554084 0.000263247231487185)
(0.0363400019705296 -0.000390065368264914 -0.00102851784322411)
(0.0363400019705296 0.000974001653958112 0.000511195452418178)
(0.0363400019705296 -0.00062487117247656 -0.000905282271560282)
(0.0363400019705296 0.000823361799120903 0.000729434890672565)
(0.0363400019705296 -0.000823361799120903 -0.000729434890672565)
(0.0363400019705296 -0.000974001653958112 -0.000511195452418178)
(0.0363400019705296 0.00062487117247656 0.000905282271560282)
(0.0363400019705296 0.000390065368264914 0.00102851784322411)
(0.0363400019705296 -0.00109999999403954 1.11170747881654e-18)
(0.0363400019705296 -0.00106803595554084 -0.000263247231487185)
(0.0363400019705296 0.000132590357679874 0.00109197979327291)
(0.0363400019705296 -0.00106803595554084 0.000263247231487185)
(0.0363400019705296 -0.000132590357679874 0.00109197979327291)
(0.0363400019705296 -0.000390065368264914 0.00102851784322411)
(0.0363400019705296 -0.000974001653958112 0.000511195452418178)
(0.0363400019705296 -0.00062487117247656 0.000905282271560282)
(0.0363400019705296 -0.000823361799120903 0.000729434890672565)
(0.0188400000333786 0.00414982531219721 -0.00378306559287012)
(0.0188400000333786 0.00338403019122779 -0.00448118010535836)
(0.0188400000333786 0.00250299577601254 -0.00502669345587492)
(0.0188400000333786 0.00477430317550898 -0.00295612309128046)
(0.0188400000333786 0.00153672520536929 -0.00540102878585458)
(0.0188400000333786 0.0052361972630024 -0.00202851369976997)
(0.0188400000333786 0.000518123037181795 -0.005591438151896)
(0.0188400000333786 0.00551977986469865 -0.0010318256681785)
(0.0188400000333786 0.00561539269983768 0)
(0.0188400000333786 -0.000518123037181795 -0.005591438151896)
(0.0188400000333786 0.00551977986469865 0.0010318256681785)
(0.0188400000333786 -0.00153672520536929 -0.00540102878585458)
(0.0188400000333786 0.0052361972630024 0.00202851369976997)
(0.0188400000333786 -0.00250299577601254 -0.00502669345587492)
(0.0188400000333786 0.00477430317550898 0.00295612309128046)
(0.0188400000333786 -0.00338403019122779 -0.00448118010535836)
(0.0188400000333786 0.00414982531219721 0.00378306559287012)
(0.0188400000333786 -0.00414982531219721 -0.00378306559287012)
(0.0188400000333786 0.00338403019122779 0.00448118010535836)
(0.0188400000333786 -0.00477430317550898 -0.00295612309128046)
(0.0188400000333786 0.00250299577601254 0.00502669345587492)
(0.0188400000333786 -0.0052361972630024 -0.00202851369976997)
(0.0188400000333786 0.00153672520536929 0.00540102878585458)
(0.0188400000333786 -0.00551977986469865 -0.0010318256681785)
(0.0188400000333786 0.000518123037181795 0.005591438151896)
(0.0188400000333786 -0.00561539269983768 5.67515755614107e-18)
(0.0188400000333786 -0.000518123037181795 0.005591438151896)
(0.0188400000333786 -0.00551977986469865 0.0010318256681785)
(0.0188400000333786 -0.00153672520536929 0.00540102878585458)
(0.0188400000333786 -0.0052361972630024 0.00202851369976997)
(0.0188400000333786 -0.00250299577601254 0.00502669345587492)
(0.0188400000333786 -0.00477430317550898 0.00295612309128046)
(0.0188400000333786 -0.00338403019122779 0.00448118010535836)
(0.0188400000333786 -0.00414982531219721 0.00378306559287012)
(0.0115000000223517 0.00481236260384321 0)
(0.0115000000223517 0.00471385335549712 0.00096872152062133)
(0.0115000000223517 0.00471385335549712 -0.00096872152062133)
(0.0115000000223517 0.00442235870286822 0.00189778348430991)
(0.0115000000223517 0.00394981168210506 0.0027491501532495)
(0.0115000000223517 0.00331555888988078 0.00348796579055488)
(0.0115000000223517 0.00254556676372886 0.00408398406580091)
(0.0115000000223517 0.00167135894298553 0.00451280362904072)
(0.0115000000223517 0.000728725455701351 0.00475686835125089)
(0.0115000000223517 -0.000243742179009132 0.00480618607252836)
(0.0115000000223517 -0.00120623095426708 0.00465873861685395)
(0.0115000000223517 -0.00211933627724648 0.00432056142017245)
(0.0115000000223517 -0.00294567598029971 0.00380549975670874)
(0.0115000000223517 -0.00365141942165792 0.00313464063219726)
(0.0115000000223517 -0.00420767301693559 0.00233544921502471)
(0.0115000000223517 -0.00459166429936886 0.00144064403139055)
(0.0115000000223517 -0.00478767184540629 0.000486858654767275)
(0.0115000000223517 -0.00478767184540629 -0.000486858654767275)
(0.0115000000223517 -0.00459166429936886 -0.00144064403139055)
(0.0115000000223517 -0.00420767301693559 -0.00233544921502471)
(0.0115000000223517 -0.00365141942165792 -0.00313464063219726)
(0.0115000000223517 -0.00294567598029971 -0.00380549975670874)
(0.0115000000223517 -0.00211933627724648 -0.00432056142017245)
(0.0115000000223517 -0.00120623095426708 -0.00465873861685395)
(0.0115000000223517 -0.000243742179009132 -0.00480618607252836)
(0.0115000000223517 0.000728725455701351 -0.00475686835125089)
(0.0115000000223517 0.00167135894298553 -0.00451280362904072)
(0.0115000000223517 0.00254556676372886 -0.00408398406580091)
(0.0115000000223517 0.00331555888988078 -0.00348796579055488)
(0.0115000000223517 0.00394981168210506 -0.0027491501532495)
(0.0115000000223517 0.00442235870286822 -0.00189778348430991)
(0.0383499972522259 0.00551977986469865 0.0010318256681785)
(0.0383499972522259 0.00561539269983768 0)
(0.0383499972522259 0.0052361972630024 0.00202851369976997)
(0.0383499972522259 0.00477430317550898 0.00295612309128046)
(0.0383499972522259 0.00414982531219721 0.00378306559287012)
(0.0383499972522259 0.00338403019122779 0.00448118010535836)
(0.0383499972522259 0.00250299577601254 0.00502669345587492)
(0.0383499972522259 0.00153672520536929 0.00540102878585458)
(0.0383499972522259 0.000518123037181795 0.005591438151896)
(0.0383499972522259 -0.000518123037181795 0.005591438151896)
(0.0383499972522259 -0.00153672520536929 0.00540102878585458)
(0.0383499972522259 -0.00250299577601254 0.00502669345587492)
(0.0383499972522259 -0.00338403019122779 0.00448118010535836)
(0.0383499972522259 -0.00414982531219721 0.00378306559287012)
(0.0383499972522259 -0.00477430317550898 0.00295612309128046)
(0.0327636189758778 -0.00517033319920301 0.00219095544889569)
(0.0334025025367737 -0.00514499237760901 0.00224981876090169)
(0.0338388159871101 -0.00516160065308213 0.00221145083196461)
(0.032146442681551 -0.00524314260110259 0.00201049423776567)
(0.0316263139247894 -0.00533576169982553 0.00174993788823485)
(0.0383499972522259 -0.0052361972630024 0.00202851369976997)
(0.0343186482787132 -0.00521586555987597 0.00208023586310446)
(0.0347761064767838 -0.00530631560832262 0.00183729361742735)
(0.0312601812183857 -0.00541579350829124 0.00148385157808661)
(0.035012137144804 -0.00536886695772409 0.00164556980598718)
(0.0309632755815983 -0.00548871280625463 0.00118602951988578)
(0.0307674892246723 -0.00554041145369411 0.000914588221348822)
(0.0306251402944326 -0.00557969463989139 0.000632172101177275)
(0.03529267385602 -0.00545800244435668 0.00132016802672297)
(0.0355136506259441 -0.00553988106548786 0.000917796511203051)
(0.0383499972522259 -0.00551977986469865 0.0010318256681785)
(0.0305418819189072 -0.00560330646112561 0.000368226872524247)
(0.0356488786637783 -0.00559517694637179 0.000476049521239474)
(0.0305007286369801 -0.0056151463650167 5.26180338056292e-05)
(0.0305279996246099 -0.00560728786513209 -0.000301592110190541)
(0.0356960296630859 -0.00561539269983768 2.49800169787312e-19)
(0.0383499972522259 -0.00561539269983768 5.67515755614107e-18)
(0.0306535791605711 -0.00557173602283001 -0.000698849151376635)
(0.0356367751955986 -0.00559006445109844 -0.000532739155460149)
(0.030889093875885 -0.00550797488540411 -0.00109308783430606)
(0.031289916485548 -0.00540887378156185 -0.00150888052303344)
(0.0383499972522259 -0.00551977986469865 -0.0010318256681785)
(0.0354686416685581 -0.00552235683426261 -0.00101794255897403)
(0.0352145545184612 -0.00543153425678611 -0.00142515543848276)
(0.0317916236817837 -0.00530350487679243 -0.00184539146721363)
(0.0323274247348309 -0.00521734077483416 -0.00207653222605586)
(0.0328879542648792 -0.00516114383935928 -0.00221251649782062)
(0.0333993323147297 -0.00514497794210911 -0.00224985228851438)
(0.0383499972522259 -0.0052361972630024 -0.00202851369976997)
(0.0348998382687569 -0.00533771421760321 -0.00174397206865251)
(0.0345467664301395 -0.0052560274489224 -0.00197656569071114)
(0.0341716669499874 -0.005195003002882 -0.00213180179707706)
(0.0337866172194481 -0.00515803834423423 -0.00221974728628993)
(0.0383499972522259 -0.00477430317550898 -0.00295612309128046)
(0.0383499972522259 -0.00414982531219721 -0.00378306559287012)
(0.0383499972522259 -0.00338403019122779 -0.00448118010535836)
(0.0383499972522259 -0.00250299577601254 -0.00502669345587492)
(0.0383499972522259 -0.00153672520536929 -0.00540102878585458)
(0.0383499972522259 -0.000518123037181795 -0.005591438151896)
(0.0383499972522259 0.000518123037181795 -0.005591438151896)
(0.0383499972522259 0.00153672520536929 -0.00540102878585458)
(0.0383499972522259 0.00250299577601254 -0.00502669345587492)
(0.0383499972522259 0.00338403019122779 -0.00448118010535836)
(0.0383499972522259 0.00414982531219721 -0.00378306559287012)
(0.0383499972522259 0.00477430317550898 -0.00295612309128046)
(0.0383499972522259 0.0052361972630024 -0.00202851369976997)
(0.0383499972522259 0.00551977986469865 -0.0010318256681785)
(0.0115000000223517 0.00437062280252576 -0.00496599217876792)
(0.0115000000223517 0.00514701195061207 -0.00415592174977064)
(0.0115000000223517 0.00577533105388284 -0.00322629348374903)
(0.0115000000223517 0.00246659200638533 -0.00613834988325834)
(0.0115000000223517 0.00346849835477769 -0.00563319958746433)
(0.0115000000223517 0.00623750453814864 -0.00220385054126382)
(0.0115000000223517 0.00139372609555721 -0.00646691164001822)
(0.0115000000223517 0.0065202359110117 -0.00111800665035844)
(0.0115000000223517 0.000280765205388889 -0.00660943193361163)
(0.0115000000223517 0.00661539286375046 0)
(0.0115000000223517 0.0065202359110117 0.00111800665035844)
(0.0115000000223517 -0.00084027269622311 -0.00656181061640382)
(0.0115000000223517 0.00623750453814864 0.00220385054126382)
(0.0115000000223517 -0.00193713756743819 -0.00632541859522462)
(0.0115000000223517 0.00577533105388284 0.00322629348374903)
(0.0115000000223517 -0.00297827459871769 -0.00590705499053001)
(0.0115000000223517 -0.00393373193219304 -0.00531875668093562)
(0.0115000000223517 0.00514701195061207 0.00415592174977064)
(0.0115000000223517 -0.004776022862643 -0.00457744719460607)
(0.0115000000223517 0.00437062280252576 0.00496599217876792)
(0.0115000000223517 -0.00548091670498252 -0.00370445288717747)
(0.0115000000223517 0.00346849835477769 0.00563319958746433)
(0.0115000000223517 -0.00602813437581062 -0.00272488826885819)
(0.0115000000223517 0.00246659200638533 0.00613834988325834)
(0.0115000000223517 -0.0064019332639873 -0.00166693376377225)
(0.0115000000223517 0.00139372609555721 0.00646691164001822)
(0.0115000000223517 -0.00659156031906605 -0.000561024469789118)
(0.0115000000223517 0.000280765205388889 0.00660943193361163)
(0.0115000000223517 -0.00659156031906605 0.000561024469789118)
(0.0115000000223517 -0.00084027269622311 0.00656181061640382)
(0.0115000000223517 -0.0064019332639873 0.00166693376377225)
(0.0115000000223517 -0.00193713756743819 0.00632541859522462)
(0.0115000000223517 -0.00602813437581062 0.00272488826885819)
(0.0115000000223517 -0.00297827459871769 0.00590705499053001)
(0.0115000000223517 -0.00548091670498252 0.00370445288717747)
(0.0115000000223517 -0.00393373193219304 0.00531875668093562)
(0.0115000000223517 -0.004776022862643 0.00457744719460607)
(0.0407500006258488 0.00194188370369375 0.000478631322039291)
(0.0407500006258488 0.0020000000949949 0)
(0.0407500006258488 0.00194188370369375 -0.000478631322039291)
(0.0407500006258488 0.00177091208752245 0.000929446367081255)
(0.0407500006258488 0.00149702152702957 0.0013262452557683)
(0.0407500006258488 0.00113612948916852 0.00164596771355718)
(0.0407500006258488 0.000709209823980927 0.00187003239989281)
(0.0407500006258488 0.00024107335775625 0.00198541767895222)
(0.0407500006258488 -0.00024107335775625 0.00198541767895222)
(0.0407500006258488 -0.000709209823980927 0.00187003239989281)
(0.0407500006258488 -0.00113612948916852 0.00164596771355718)
(0.0407500006258488 -0.00149702152702957 0.0013262452557683)
(0.0407500006258488 -0.00177091208752245 0.000929446367081255)
(0.0407500006258488 -0.00194188370369375 0.000478631322039291)
(0.0407500006258488 -0.0020000000949949 2.02128613712539e-18)
(0.0407500006258488 -0.00194188370369375 -0.000478631322039291)
(0.0407500006258488 -0.00177091208752245 -0.000929446367081255)
(0.0407500006258488 -0.00149702152702957 -0.0013262452557683)
(0.0407500006258488 -0.00113612948916852 -0.00164596771355718)
(0.0407500006258488 -0.000709209823980927 -0.00187003239989281)
(0.0407500006258488 -0.00024107335775625 -0.00198541767895222)
(0.0407500006258488 0.00024107335775625 -0.00198541767895222)
(0.0407500006258488 0.000709209823980927 -0.00187003239989281)
(0.0407500006258488 0.00113612948916852 -0.00164596771355718)
(0.0407500006258488 0.00149702152702957 -0.0013262452557683)
(0.0407500006258488 0.00177091208752245 -0.000929446367081255)
(0.0324428863823414 -0.0112500004470348 4.00445630861222e-19)
(0.0324117578566074 -0.0112500004470348 -0.000347254914231598)
(0.032319113612175 -0.0112500004470348 -0.000686188519466668)
(0.0321095064282417 -0.0112500004470348 -0.001102662878111)
(0.0318075604736805 -0.0112500004470348 -0.00147418060805649)
(0.031425591558218 -0.0112500004470348 -0.00178559427149594)
(0.0309791713953018 -0.0112500004470348 -0.00202420726418495)
(0.0304865036159754 -0.0112500004470348 -0.00218029133975506)
(0.029967674985528 -0.0112500004470348 -0.00224748253822327)
(0.029443833976984 -0.0112500004470348 -0.00222304160706699)
(0.0289363414049149 -0.0112500004470348 -0.00210796482861042)
(0.0284658893942833 -0.0112500004470348 -0.00190694408956915)
(0.028051657602191 -0.0112500004470348 -0.00162817514501512)
(0.0277105327695608 -0.0112500004470348 -0.00128302373923361)
(0.0274564269930124 -0.0112500004470348 -0.000885562156327069)
(0.0272996965795755 -0.0112500004470348 -0.000451995263574645)
(0.0272467322647572 -0.0112500004470348 1.28726751654297e-20)
(0.0272778626531363 -0.0112500004470348 0.000347254914231598)
(0.0273705031722784 -0.0112500004470348 0.000686188519466668)
(0.027580114081502 -0.0112500004470348 0.001102662878111)
(0.027882058173418 -0.0112500004470348 0.00147418060805649)
(0.0282640289515257 -0.0112500004470348 0.00178559427149594)
(0.0287104472517967 -0.0112500004470348 0.00202420726418495)
(0.029203113168478 -0.0112500004470348 0.00218029133975506)
(0.0297219455242157 -0.0112500004470348 0.00224748253822327)
(0.0302457846701145 -0.0112500004470348 0.00222304160706699)
(0.0307532772421837 -0.0112500004470348 0.00210796482861042)
(0.0312237273901701 -0.0112500004470348 0.00190694408956915)
(0.0316379629075527 -0.0112500004470348 0.00162817514501512)
(0.0319790877401829 -0.0112500004470348 0.00128302373923361)
(0.0322331935167313 -0.0112500004470348 0.000885562156327069)
(0.0323899239301682 -0.0112500004470348 0.000451995263574645)
(0 0.00661539286375046 0)
(0 0.0065202359110117 0.00111800665035844)
(0 0.00623750453814864 0.00220385054126382)
(0 0.00577533105388284 0.00322629348374903)
(0 0.00514701195061207 0.00415592174977064)
(0 0.00437062280252576 0.00496599217876792)
(0 0.00346849835477769 0.00563319958746433)
(0 0.00246659200638533 0.00613834988325834)
(0 0.00139372609555721 0.00646691164001822)
(0 0.000280765205388889 0.00660943193361163)
(0 -0.00084027269622311 0.00656181061640382)
(0 -0.00193713756743819 0.00632541859522462)
(0 -0.00297827459871769 0.00590705499053001)
(0 -0.00393373193219304 0.00531875668093562)
(0 -0.004776022862643 0.00457744719460607)
(0 -0.00548091670498252 0.00370445288717747)
(0 -0.00602813437581062 0.00272488826885819)
(0 -0.0064019332639873 0.00166693376377225)
(0 -0.00659156031906605 0.000561024469789118)
(0 -0.00659156031906605 -0.000561024469789118)
(0 -0.0064019332639873 -0.00166693376377225)
(0 -0.00602813437581062 -0.00272488826885819)
(0 -0.00548091670498252 -0.00370445288717747)
(0 -0.004776022862643 -0.00457744719460607)
(0 -0.00393373193219304 -0.00531875668093562)
(0 -0.00297827459871769 -0.00590705499053001)
(0 -0.00193713756743819 -0.00632541859522462)
(0 -0.00084027269622311 -0.00656181061640382)
(0 0.000280765205388889 -0.00660943193361163)
(0 0.00139372609555721 -0.00646691164001822)
(0 0.00246659200638533 -0.00613834988325834)
(0 0.00346849835477769 -0.00563319958746433)
(0 0.00437062280252576 -0.00496599217876792)
(0 0.00514701195061207 -0.00415592174977064)
(0 0.00577533105388284 -0.00322629348374903)
(0 0.00623750453814864 -0.00220385054126382)
(0 0.0065202359110117 -0.00111800665035844)
(0.0677499994635582 0.00194188370369375 0.000478631322039291)
(0.0677499994635582 0.0020000000949949 0)
(0.0677499994635582 0.00177091208752245 0.000929446367081255)
(0.0677499994635582 0.00149702152702957 0.0013262452557683)
(0.0677499994635582 0.00113612948916852 0.00164596771355718)
(0.0677499994635582 0.000709209823980927 0.00187003239989281)
(0.0677499994635582 0.00024107335775625 0.00198541767895222)
(0.0677499994635582 -0.00024107335775625 0.00198541767895222)
(0.0677499994635582 -0.000709209823980927 0.00187003239989281)
(0.0677499994635582 -0.00113612948916852 0.00164596771355718)
(0.0677499994635582 -0.00149702152702957 0.0013262452557683)
(0.0677499994635582 -0.00177091208752245 0.000929446367081255)
(0.0677499994635582 -0.00194188370369375 0.000478631322039291)
(0.0677499994635582 -0.0020000000949949 2.02128613712539e-18)
(0.0677499994635582 -0.00194188370369375 -0.000478631322039291)
(0.0677499994635582 -0.00177091208752245 -0.000929446367081255)
(0.0677499994635582 -0.00149702152702957 -0.0013262452557683)
(0.0677499994635582 -0.00113612948916852 -0.00164596771355718)
(0.0677499994635582 -0.000709209823980927 -0.00187003239989281)
(0.0677499994635582 -0.00024107335775625 -0.00198541767895222)
(0.0677499994635582 0.00024107335775625 -0.00198541767895222)
(0.0677499994635582 0.000709209823980927 -0.00187003239989281)
(0.0677499994635582 0.00113612948916852 -0.00164596771355718)
(0.0677499994635582 0.00149702152702957 -0.0013262452557683)
(0.0677499994635582 0.00177091208752245 -0.000929446367081255)
(0.0677499994635582 0.00194188370369375 -0.000478631322039291)
(0.0925000011920929 0.00384888611733913 0.000878483115229756)
(0.0925000011920929 0.00394786708056927 0)
(0.0925000011920929 0.00384888611733913 -0.000878483115229756)
(0.0925000011920929 0.00355690554715693 0.00171291537117213)
(0.0925000011920929 0.00308656692504883 0.00246145483106375)
(0.0925000011920929 0.00246145483106375 0.00308656692504883)
(0.0925000011920929 0.00171291537117213 0.00355690554715693)
(0.0925000011920929 0.000878483115229756 0.00384888611733913)
(0.0925000011920929 2.41737149218269e-19 0.00394786708056927)
(0.0925000011920929 -0.000878483115229756 0.00384888611733913)
(0.0925000011920929 -0.00171291537117213 0.00355690554715693)
(0.0925000011920929 -0.00246145483106375 0.00308656692504883)
(0.0925000011920929 -0.00308656692504883 0.00246145483106375)
(0.0925000011920929 -0.00355690554715693 0.00171291537117213)
(0.0925000011920929 -0.00384888611733913 0.000878483115229756)
(0.0925000011920929 -0.00394786708056927 4.83474298436538e-19)
(0.0925000011920929 -0.00384888611733913 -0.000878483115229756)
(0.0925000011920929 -0.00355690554715693 -0.00171291537117213)
(0.0925000011920929 -0.00308656692504883 -0.00246145483106375)
(0.0925000011920929 -0.00246145483106375 -0.00308656692504883)
(0.0925000011920929 -0.00171291537117213 -0.00355690554715693)
(0.0925000011920929 -0.000878483115229756 -0.00384888611733913)
(0.0925000011920929 -7.25211473504202e-19 -0.00394786708056927)
(0.0925000011920929 0.000878483115229756 -0.00384888611733913)
(0.0925000011920929 0.00171291537117213 -0.00355690554715693)
(0.0925000011920929 0.00246145483106375 -0.00308656692504883)
(0.0925000011920929 0.00308656692504883 -0.00246145483106375)
(0.0925000011920929 0.00355690554715693 -0.00171291537117213)
)

// edges

402
(
(2 3)
(3 5)
(23 2)
(25 23)
(27 25)
(28 27)
(30 28)
(32 30)
(33 32)
(35 33)
(37 35)
(38 37)
(39 38)
(40 39)
(41 40)
(42 41)
(43 42)
(44 43)
(45 44)
(46 45)
(47 46)
(48 47)
(49 48)
(50 49)
(51 50)
(52 51)
(53 52)
(54 53)
(55 54)
(56 55)
(57 56)
(5 57)
(84 85)
(85 86)
(87 84)
(86 88)
(89 87)
(88 90)
(91 89)
(92 91)
(90 93)
(94 92)
(93 95)
(96 94)
(95 97)
(98 96)
(97 99)
(100 98)
(99 101)
(102 100)
(101 103)
(104 102)
(103 105)
(106 104)
(105 107)
(108 106)
(107 109)
(110 108)
(109 111)
(112 110)
(111 113)
(114 112)
(113 115)
(116 114)
(115 117)
(117 116)
(149 150)
(151 149)
(152 151)
(153 152)
(154 153)
(155 154)
(156 155)
(157 156)
(158 157)
(159 158)
(160 159)
(161 160)
(162 161)
(163 162)
(169 163)
(179 169)
(185 179)
(190 185)
(197 190)
(202 197)
(203 202)
(204 203)
(205 204)
(206 205)
(207 206)
(208 207)
(209 208)
(210 209)
(211 210)
(212 211)
(213 212)
(214 213)
(215 214)
(150 215)
(216 217)
(217 218)
(219 220)
(220 216)
(218 221)
(222 219)
(221 223)
(224 222)
(225 226)
(223 225)
(227 224)
(226 228)
(229 227)
(228 230)
(231 229)
(232 231)
(230 233)
(234 232)
(233 235)
(236 234)
(235 237)
(238 236)
(237 239)
(240 238)
(239 241)
(242 240)
(241 243)
(244 242)
(243 245)
(246 244)
(245 247)
(248 246)
(247 249)
(250 248)
(249 251)
(252 250)
(251 252)
(279 280)
(280 281)
(281 282)
(282 283)
(283 284)
(284 285)
(285 286)
(286 287)
(287 288)
(288 289)
(289 290)
(290 291)
(291 292)
(292 293)
(293 294)
(294 295)
(295 296)
(296 297)
(297 298)
(298 299)
(299 300)
(300 301)
(301 302)
(302 303)
(303 304)
(304 305)
(305 306)
(306 307)
(307 308)
(308 309)
(309 310)
(310 279)
(311 312)
(312 313)
(313 314)
(314 315)
(315 316)
(316 317)
(317 318)
(318 319)
(319 320)
(320 321)
(321 322)
(322 323)
(323 324)
(324 325)
(325 326)
(326 327)
(327 328)
(328 329)
(329 330)
(330 331)
(331 332)
(332 333)
(333 334)
(334 335)
(335 336)
(336 337)
(337 338)
(338 339)
(339 340)
(340 341)
(341 342)
(342 343)
(343 344)
(344 345)
(345 346)
(346 347)
(347 311)
(374 375)
(375 376)
(377 374)
(378 377)
(379 378)
(380 379)
(381 380)
(382 381)
(383 382)
(384 383)
(385 384)
(386 385)
(387 386)
(388 387)
(389 388)
(390 389)
(391 390)
(392 391)
(393 392)
(394 393)
(395 394)
(396 395)
(397 396)
(398 397)
(399 398)
(400 399)
(401 400)
(376 401)
(0 1)
(4 0)
(1 6)
(6 7)
(7 8)
(8 9)
(9 10)
(10 11)
(11 12)
(12 13)
(13 14)
(14 15)
(15 16)
(16 17)
(17 18)
(18 19)
(19 20)
(20 21)
(21 22)
(22 24)
(24 26)
(26 29)
(29 31)
(31 34)
(34 36)
(36 4)
(58 59)
(59 60)
(61 58)
(60 62)
(63 61)
(62 64)
(65 63)
(64 66)
(67 65)
(66 68)
(69 67)
(68 70)
(71 69)
(72 71)
(70 73)
(73 74)
(75 76)
(76 72)
(74 77)
(78 75)
(77 79)
(79 80)
(81 78)
(80 82)
(82 83)
(83 81)
(118 119)
(120 118)
(119 121)
(121 122)
(122 123)
(123 124)
(124 125)
(125 126)
(126 127)
(127 128)
(128 129)
(129 130)
(130 131)
(131 132)
(132 133)
(133 134)
(134 135)
(135 136)
(136 137)
(137 138)
(138 139)
(139 140)
(140 141)
(141 142)
(142 143)
(143 144)
(144 145)
(145 146)
(146 147)
(147 148)
(148 120)
(164 165)
(165 166)
(167 164)
(168 167)
(166 170)
(170 171)
(172 168)
(171 173)
(174 172)
(175 174)
(176 175)
(177 178)
(173 177)
(180 176)
(178 181)
(182 180)
(183 182)
(181 184)
(186 183)
(184 187)
(188 186)
(189 188)
(187 191)
(191 192)
(193 189)
(194 193)
(195 194)
(196 195)
(192 198)
(198 199)
(199 200)
(200 201)
(201 196)
(253 254)
(254 255)
(256 253)
(257 256)
(258 257)
(259 258)
(260 259)
(261 260)
(262 261)
(263 262)
(264 263)
(265 264)
(266 265)
(267 266)
(268 267)
(269 268)
(270 269)
(271 270)
(272 271)
(273 272)
(274 273)
(275 274)
(276 275)
(277 276)
(278 277)
(255 278)
(348 349)
(350 348)
(351 350)
(352 351)
(353 352)
(354 353)
(355 354)
(356 355)
(357 356)
(358 357)
(359 358)
(360 359)
(361 360)
(362 361)
(363 362)
(364 363)
(365 364)
(366 365)
(367 366)
(368 367)
(369 368)
(370 369)
(371 370)
(372 371)
(373 372)
(349 373)
)

// concaveStart mixedStart nonFeatureStart
0 0 0
// internalStart flatStart openStart multipleStart
234 402 402 402
// normals

783
(
(-0.146754804689947 -0.981960755042824 -0.119231299817379)
(-1 0 0)
(-0.14711326473255 -0.984356769448442 -0.0969506976806088)
(-1 0 0)
(-0.146754804689947 -0.981960755042824 0.119231299817379)
(-1 0 0)
(-0.14711326473255 -0.984356769448442 0.0969506976806088)
(-1 0 -0)
(-0.153165319797582 -0.923983431159024 -0.350421180516962)
(-1 0 0)
(-0.157645635825845 -0.812693226518486 -0.560961293741412)
(-1 0 0)
(-0.160202864693199 -0.654557748982793 -0.738843146676391)
(-1 0 -0)
(-0.160841971691981 -0.458672755622788 -0.873927435998913)
(-1 0 -0)
(-0.159563780897839 -0.236249131683317 -0.958501824518068)
(-1 0 0)
(-0.156366190023606 0 -0.987699151876472)
(-1 0 0)
(-0.151243331656604 0.236562381424604 -0.959772730558714)
(-1 0 0)
(-0.144187172020503 0.459867215928586 -0.876203288705778)
(-1 0 0)
(-0.149106620808702 0.655709601637809 -0.740143319871899)
(-1 0 0)
(-0.154872970958798 0.813054223016321 -0.561210471482599)
(-1 0 -0)
(-0.15871145881009 0.923164758643032 -0.350110698553935)
(-1 0 -0)
(-0.160629067877757 0.97981843315046 -0.118971175548113)