/*--------------------------------*- C++ -*----------------------------------*\
  =========                 |
  \\      /  F ield         | OpenFOAM: The Open Source CFD Toolbox
   \\    /   O peration     | Website:  https://openfoam.org
    \\  /    A nd           | Version:  7
     \\/     M anipulation  |
\*---------------------------------------------------------------------------*/
FoamFile
{
    version     2.0;
    format      ascii;
    class       extendedFeatureEdgeMesh;
    location    "constant/extendedFeatureEdgeMesh";
    object      AdditivePipe_Geometry.extendedFeatureEdgeMesh;
}
// * * * * * * * * * * * * * * * * * * * * * * * * * * * * * * * * * * * * * //

// points

410
(
(0.0145550007000566 -0.00473029166460037 -0.00243863486684859)
(0.0145550007000566 -0.00510632432997227 -0.00149935192894191)
(0.0365549996495247 0.00222999998368323 0)
(0.0365549996495247 0.00216520018875599 0.000533673970494419)
(0.0145550007000566 -0.00418329471722245 -0.00328977918252349)
(0.0145550007000566 -0.00348510220646858 -0.00402202224358916)
(0.0145550007000566 -0.00266094924882054 -0.00460889888927341)
(0.0145550007000566 -0.00174062245059758 -0.00502919824793935)
(0.0145550007000566 -0.000757385161705315 -0.00526772905141115)
(0.0145550007000566 0.000253226142376661 -0.00531587051227689)
(0.0145550007000566 0.00522572454065084 0.00100717588793486)
(0.0145550007000566 0.00532189849764109 0)
(0.0145550007000566 0.00125468499027193 -0.00517188245430589)
(0.0145550007000566 0.00221079657785594 -0.0048409691080451)
(0.0145550007000566 0.00308700394816697 -0.00433509051799774)
(0.0365549996495247 0.00216520018875599 -0.000533673970494419)
(0.0145550007000566 0.0038516391068697 -0.00367253040894866)
(0.0145550007000566 0.00447706552222371 -0.00287723541259766)
(0.0145550007000566 0.00494067976251245 -0.00197794986888766)
(0.0145550007000566 0.00522572454065084 -0.00100717588793486)
(0.0365549996495247 0.00197456683963537 0.00103633268736303)
(0.0365549996495247 0.001669178949669 0.00147876353003085)
(0.0365549996495247 0.00126678438391536 0.00183525402098894)
(0.0365549996495247 0.000790768943261355 0.00208508619107306)
(0.0365549996495247 0.000268796808086336 0.00221374072134495)
(0.0365549996495247 -0.000268796808086336 0.00221374072134495)
(0.0365549996495247 -0.000790768943261355 0.00208508619107306)
(0.0365549996495247 -0.00126678438391536 0.00183525402098894)
(0.0365549996495247 -0.001669178949669 0.00147876353003085)
(0.0365549996495247 -0.00197456683963537 0.00103633268736303)
(0.0365549996495247 -0.00216520018875599 0.000533673970494419)
(0.0365549996495247 -0.00222999998368323 2.25373402221529e-18)
(0.0365549996495247 -0.00216520018875599 -0.000533673970494419)
(0.0365549996495247 -0.00197456683963537 -0.00103633268736303)
(0.0365549996495247 -0.001669178949669 -0.00147876353003085)
(0.0365549996495247 -0.00126678438391536 -0.00183525402098894)
(0.0365549996495247 -0.000790768943261355 -0.00208508619107306)
(0.0365549996495247 -0.000268796808086336 -0.00221374072134495)
(0.0365549996495247 0.000268796808086336 -0.00221374072134495)
(0.0365549996495247 0.000790768943261355 -0.00208508619107306)
(0.0365549996495247 0.00126678438391536 -0.00183525402098894)
(0.0145550007000566 0.00494067976251245 0.00197794986888766)
(0.0365549996495247 0.001669178949669 -0.00147876353003085)
(0.0145550007000566 0.00447706552222371 0.00287723541259766)
(0.0145550007000566 0.0038516391068697 0.00367253040894866)
(0.0365549996495247 0.00197456683963537 -0.00103633268736303)
(0.0145550007000566 0.00308700394816697 0.00433509051799774)
(0.0145550007000566 0.00221079657785594 0.0048409691080451)
(0.0145550007000566 0.00125468499027193 0.00517188245430589)
(0.0145550007000566 0.000253226142376661 0.00531587051227689)
(0.0145550007000566 -0.000757385161705315 0.00526772905141115)
(0.0145550007000566 -0.00174062245059758 0.00502919824793935)
(0.0145550007000566 -0.00266094924882054 0.00460889888927341)
(0.0145550007000566 -0.00348510220646858 0.00402202224358916)
(0.0145550007000566 -0.00418329471722245 0.00328977918252349)
(0.0145550007000566 -0.00473029166460037 0.00243863486684859)
(0.0145550007000566 -0.00510632432997227 0.00149935192894191)
(0.0145550007000566 -0.00529780052602291 0.00050587864825502)
(0.0145550007000566 -0.00529780052602291 -0.00050587864825502)
(0.0365549996495247 0.000698719639331102 -0.00101227022241801)
(0.0365549996495247 0.000920668244361877 -0.000815640843939036)
(0.0365549996495247 0.00108911097049713 -0.000571609474718571)
(0.0365549996495247 0.000436164031270891 -0.00115006999112666)
(0.0365549996495247 0.00119425845332444 -0.000294358265819028)
(0.0365549996495247 0.000148260121932253 -0.00122103188186884)
(0.0365549996495247 0.0012300000526011 0)
(0.0365549996495247 -0.000148260121932253 -0.00122103188186884)
(0.0365549996495247 0.00119425845332444 0.000294358265819028)
(0.0365549996495247 -0.000436164031270891 -0.00115006999112666)
(0.0365549996495247 0.00108911097049713 0.000571609474718571)
(0.0365549996495247 -0.000698719639331102 -0.00101227022241801)
(0.0365549996495247 0.000920668244361877 0.000815640843939036)
(0.0365549996495247 -0.000920668244361877 -0.000815640843939036)
(0.0365549996495247 0.000698719639331102 0.00101227022241801)
(0.0365549996495247 -0.00119425845332444 -0.000294358265819028)
(0.0365549996495247 -0.00108911097049713 -0.000571609474718571)
(0.0365549996495247 0.000436164031270891 0.00115006999112666)
(0.0365549996495247 0.000148260121932253 0.00122103188186884)
(0.0365549996495247 -0.0012300000526011 1.24309105705018e-18)
(0.0365549996495247 -0.000148260121932253 0.00122103188186884)
(0.0365549996495247 -0.000436164031270891 0.00115006999112666)
(0.0365549996495247 -0.00119425845332444 0.000294358265819028)
(0.0365549996495247 -0.000698719639331102 0.00101227022241801)
(0.0365549996495247 -0.000920668244361877 0.000815640843939036)
(0.0365549996495247 -0.00108911097049713 0.000571609474718571)
(0.0145550007000566 0.0048428550362587 -0.00406363792717457)
(0.0145550007000566 0.00406363792717457 -0.0048428550362587)
(0.0145550007000566 0.00316094933077693 -0.00547492457553744)
(0.0145550007000566 0.00547492457553744 -0.00316094933077693)
(0.0145550007000566 0.00216221669688821 -0.00594064127653837)
(0.0145550007000566 0.00594064127653837 -0.00216221669688821)
(0.0145550007000566 0.00109778624027967 -0.00622585462406278)
(0.0145550007000566 0.00622585462406278 -0.00109778624027967)
(0.0145550007000566 -1.8006234664538e-17 -0.00632189866155386)
(0.0145550007000566 0.00632189866155386 0)
(0.0145550007000566 0.00622585462406278 0.00109778624027967)
(0.0145550007000566 -0.00109778624027967 -0.00622585462406278)
(0.0145550007000566 0.00594064127653837 0.00216221669688821)
(0.0145550007000566 -0.00216221669688821 -0.00594064127653837)
(0.0145550007000566 0.00547492457553744 0.00316094933077693)
(0.0145550007000566 -0.00316094933077693 -0.00547492457553744)
(0.0145550007000566 0.0048428550362587 0.00406363792717457)
(0.0145550007000566 -0.00406363792717457 -0.0048428550362587)
(0.0145550007000566 0.00406363792717457 0.0048428550362587)
(0.0145550007000566 -0.0048428550362587 -0.00406363792717457)
(0.0145550007000566 0.00316094933077693 0.00547492457553744)
(0.0145550007000566 -0.00547492457553744 -0.00316094933077693)
(0.0145550007000566 0.00216221669688821 0.00594064127653837)
(0.0145550007000566 -0.00594064127653837 -0.00216221669688821)
(0.0145550007000566 0.00109778624027967 0.00622585462406278)
(0.0145550007000566 -0.00622585462406278 -0.00109778624027967)
(0.0145550007000566 3.87104629297419e-19 0.00632189866155386)
(0.0145550007000566 -0.00632189866155386 9.1966693238003e-18)
(0.0145550007000566 -0.00109778624027967 0.00622585462406278)
(0.0145550007000566 -0.00622585462406278 0.00109778624027967)
(0.0145550007000566 -0.00216221669688821 0.00594064127653837)
(0.0145550007000566 -0.00594064127653837 0.00216221669688821)
(0.0145550007000566 -0.00316094933077693 0.00547492457553744)
(0.0145550007000566 -0.00547492457553744 0.00316094933077693)
(0.0145550007000566 -0.00406363792717457 0.0048428550362587)
(0.0145550007000566 -0.0048428550362587 0.00406363792717457)
(0.00999999977648258 0.00496206199750304 0)
(0.00999999977648258 0.0048667173832655 0.000968050269875675)
(0.00999999977648258 0.0048667173832655 -0.000968050269875675)
(0.00999999977648258 0.00458434736356139 0.00189889885950834)
(0.00999999977648258 0.00412580324336886 0.0027567739598453)
(0.00999999977648258 0.00350870750844479 0.00350870750844479)
(0.00999999977648258 0.0027567739598453 0.00412580324336886)
(0.00999999977648258 0.00189889885950834 0.00458434736356139)
(0.00999999977648258 0.000968050269875675 0.0048667173832655)
(0.00999999977648258 3.03838664283877e-19 0.00496206199750304)
(0.00999999977648258 -0.000968050269875675 0.0048667173832655)
(0.00999999977648258 -0.00189889885950834 0.00458434736356139)
(0.00999999977648258 -0.0027567739598453 0.00412580324336886)
(0.00999999977648258 -0.00350870750844479 0.00350870750844479)
(0.00999999977648258 -0.00412580324336886 0.0027567739598453)
(0.00999999977648258 -0.00458434736356139 0.00189889885950834)
(0.00999999977648258 -0.0048667173832655 0.000968050269875675)
(0.00999999977648258 -0.00496206199750304 -3.79951889973218e-18)
(0.00999999977648258 -0.0048667173832655 -0.000968050269875675)
(0.00999999977648258 -0.00458434736356139 -0.00189889885950834)
(0.00999999977648258 -0.00412580324336886 -0.0027567739598453)
(0.00999999977648258 -0.00350870750844479 -0.00350870750844479)
(0.00999999977648258 -0.0027567739598453 -0.00412580324336886)
(0.00999999977648258 -0.00189889885950834 -0.00458434736356139)
(0.00999999977648258 -0.000968050269875675 -0.0048667173832655)
(0.00999999977648258 1.23100729246927e-17 -0.00496206199750304)
(0.00999999977648258 0.000968050269875675 -0.0048667173832655)
(0.00999999977648258 0.00189889885950834 -0.00458434736356139)
(0.00999999977648258 0.0027567739598453 -0.00412580324336886)
(0.00999999977648258 0.00350870750844479 -0.00350870750844479)
(0.00999999977648258 0.00412580324336886 -0.0027567739598453)
(0.00999999977648258 0.00458434736356139 -0.00189889885950834)
(0.0374599993228912 0.00622585462406278 0.00109778624027967)
(0.0374599993228912 0.00632189866155386 0)
(0.0374599993228912 0.00594064127653837 0.00216221669688821)
(0.0374599993228912 0.00547492457553744 0.00316094933077693)
(0.0374599993228912 0.0048428550362587 0.00406363792717457)
(0.0374599993228912 0.00406363792717457 0.0048428550362587)
(0.0374599993228912 0.00316094933077693 0.00547492457553744)
(0.0374599993228912 0.00216221669688821 0.00594064127653837)
(0.0374599993228912 0.00109778624027967 0.00622585462406278)
(0.0374599993228912 3.87104629297419e-19 0.00632189866155386)
(0.0374599993228912 -0.00109778624027967 0.00622585462406278)
(0.0374599993228912 -0.00216221669688821 0.00594064127653837)
(0.0374599993228912 -0.00316094933077693 0.00547492457553744)
(0.0374599993228912 -0.00406363792717457 0.0048428550362587)
(0.0374599993228912 -0.0048428550362587 0.00406363792717457)
(0.0374599993228912 -0.00547492457553744 0.00316094933077693)
(0.0374599993228912 -0.00594064127653837 0.00216221669688821)
(0.0326831601560116 -0.0060757827013731 0.0017467854777351)
(0.0330169796943665 -0.00606767553836107 0.00177474343217909)
(0.0333527252078056 -0.00607331516221166 0.00175534677691758)
(0.0323354713618755 -0.00609772326424718 0.00166858325246722)
(0.0336859524250031 -0.00609358306974173 0.00168364052660763)
(0.031978715211153 -0.0061334646306932 0.00153199548367411)
(0.0340100266039371 -0.00612825993448496 0.00155268318485469)
(0.0316385179758072 -0.00617904821410775 0.00133632507640868)
(0.0313586890697479 -0.00622432725504041 0.00110641494393349)
(0.0311702415347099 -0.00625852681696415 0.000892885203938931)
(0.0310267098248005 -0.00628647953271866 0.000668262073304504)
(0.034314937889576 -0.00617517996579409 0.00135408749338239)
(0.0345853492617607 -0.0062289871275425 0.00107986899092793)
(0.0374599993228912 -0.00622585462406278 0.00109778624027967)
(0.0309357456862926 -0.00630501843988895 0.000461674382677302)
(0.0347991548478603 -0.00627998262643814 0.000726786849554628)
(0.0308732632547617 -0.00631811330094934 0.00021872972138226)
(0.0349141992628574 -0.00631059845909476 0.000377821619622409)
(0.0308560375124216 -0.00632177432999015 -3.95498536818195e-05)
(0.0308877546340227 -0.00631505064666271 -0.000294169440167025)
(0.0374599993228912 -0.00632189866155386 9.1966693238003e-18)
(0.0349546447396278 -0.00632189866155386 1.0000000458137e-18)
(0.0310062952339649 -0.00629058526828885 -0.000628443551249802)
(0.0349045731127262 -0.00630794931203127 -0.000419727206462994)
(0.0312271658331156 -0.00624789204448462 -0.0009644910460338)
(0.0314944125711918 -0.00620152242481709 -0.00122781109530479)
(0.031797032803297 -0.00615647062659264 -0.00143675599247217)
(0.0374599993228912 -0.00622585462406278 -0.00109778624027967)
(0.0348223820328712 -0.00628598360344768 -0.000672909780405462)
(0.0347079113125801 -0.00625729002058506 -0.000901512277778238)
(0.0345436483621597 -0.00621992070227861 -0.00113092246465385)
(0.0343288965523243 -0.00617767218500376 -0.00134267064277083)
(0.0321260467171669 -0.00611714972183108 -0.00159589340910316)
(0.0340924113988876 -0.00613953918218613 -0.00150746712461114)
(0.0324677526950836 -0.00608781911432743 -0.00170436420012265)
(0.0328378155827522 -0.0060703894123435 -0.00176543928682804)
(0.0374599993228912 -0.00594064127653837 -0.00216221669688821)
(0.0338421054184437 -0.00610839249566197 -0.00162909098435193)
(0.0335835814476013 -0.00608574086800218 -0.00171176891308278)
(0.0332330092787743 -0.00606965459883213 -0.00176796305458993)
(0.0374599993228912 -0.00547492457553744 -0.00316094933077693)
(0.0374599993228912 -0.0048428550362587 -0.00406363792717457)
(0.0374599993228912 -0.00406363792717457 -0.0048428550362587)
(0.0374599993228912 -0.00316094933077693 -0.00547492457553744)
(0.0374599993228912 -0.00216221669688821 -0.00594064127653837)
(0.0374599993228912 -0.00109778624027967 -0.00622585462406278)
(0.0374599993228912 -1.8006234664538e-17 -0.00632189866155386)
(0.0374599993228912 0.00109778624027967 -0.00622585462406278)
(0.0374599993228912 0.00216221669688821 -0.00594064127653837)
(0.0374599993228912 0.00316094933077693 -0.00547492457553744)
(0.0374599993228912 0.00406363792717457 -0.0048428550362587)
(0.0374599993228912 0.0048428550362587 -0.00406363792717457)
(0.0374599993228912 0.00547492457553744 -0.00316094933077693)
(0.0374599993228912 0.00594064127653837 -0.00216221669688821)
(0.0374599993228912 0.00622585462406278 -0.00109778624027967)
(0.00999999977648258 0.00507205724716187 -0.00528057105839252)
(0.00999999977648258 0.0058534387499094 -0.00439857365563512)
(0.00999999977648258 0.00313884322531521 -0.00661497190594673)
(0.00999999977648258 0.00415931222960353 -0.00602580420672894)
(0.00999999977648258 0.00648321909829974 -0.00340265594422817)
(0.00999999977648258 0.00203708000481129 -0.0070328158326447)
(0.00999999977648258 0.00694508757442236 -0.00231861090287566)
(0.00999999977648258 0.000882557360455394 -0.00726851355284452)
(0.00999999977648258 0.00722708180546761 -0.00117451511323452)
(0.00999999977648258 -0.000294823112199083 -0.0073159602470696)
(0.00999999977648258 0.00732189835980535 0)
(0.00999999977648258 0.00722708180546761 0.00117451511323452)
(0.00999999977648258 -0.0025963808875531 -0.00684609403833747)
(0.00999999977648258 -0.00146456772927195 -0.00717392796650529)
(0.00999999977648258 0.00694508757442236 0.00231861090287566)
(0.00999999977648258 0.00648321909829974 0.00340265594422817)
(0.00999999977648258 -0.00366094917990267 -0.00634094979614019)
(0.00999999977648258 0.0058534387499094 0.00439857365563512)
(0.00999999977648258 -0.00463070068508387 -0.00567157892510295)
(0.00999999977648258 0.00507205724716187 0.00528057105839252)
(0.00999999977648258 -0.00548051996156573 -0.00485531659796834)
(0.00999999977648258 0.00415931222960353 0.00602580420672894)
(0.00999999977648258 -0.00618839589878917 -0.00391330476850271)
(0.00999999977648258 0.00313884322531521 0.00661497190594673)
(0.00999999977648258 -0.00673599587753415 -0.00286993966437876)
(0.00999999977648258 0.00203708000481129 0.0070328158326447)
(0.00999999977648258 -0.00710913771763444 -0.00175224500708282)
(0.00999999977648258 0.000882557360455394 0.00726851355284452)
(0.00999999977648258 -0.00729815568774939 -0.000589167990256101)
(0.00999999977648258 -0.000294823112199083 0.0073159602470696)
(0.00999999977648258 -0.00729815568774939 0.000589167990256101)
(0.00999999977648258 -0.00146456772927195 0.00717392796650529)
(0.00999999977648258 -0.00710913771763444 0.00175224500708282)
(0.00999999977648258 -0.0025963808875531 0.00684609403833747)
(0.00999999977648258 -0.00673599587753415 0.00286993966437876)
(0.00999999977648258 -0.00366094917990267 0.00634094979614019)
(0.00999999977648258 -0.00618839589878917 0.00391330476850271)
(0.00999999977648258 -0.00463070068508387 0.00567157892510295)
(0.00999999977648258 -0.00548051996156573 0.00485531659796834)
(0.0404599979519844 0.00171856698580086 0.000423588731791824)
(0.0404599979519844 0.00176999997347593 0)
(0.0404599979519844 0.00171856698580086 -0.000423588731791824)
(0.0404599979519844 0.0015672572189942 0.00082255998859182)
(0.0404599979519844 0.00132486398797482 0.00117372709792107)
(0.0404599979519844 0.00100547459442168 0.00145668152254075)
(0.0404599979519844 0.0006276507047005 0.00165497872512788)
(0.0404599979519844 0.000213349921978079 0.00175709475297481)
(0.0404599979519844 -0.000213349921978079 0.00175709475297481)
(0.0404599979519844 -0.0006276507047005 0.00165497872512788)
(0.0404599979519844 -0.00100547459442168 0.00145668152254075)
(0.0404599979519844 -0.00132486398797482 0.00117372709792107)
(0.0404599979519844 -0.0015672572189942 0.00082255998859182)
(0.0404599979519844 -0.00171856698580086 0.000423588731791824)
(0.0404599979519844 -0.00176999997347593 1.78883825203549e-18)
(0.0404599979519844 -0.00171856698580086 -0.000423588731791824)
(0.0404599979519844 -0.0015672572189942 -0.00082255998859182)
(0.0404599979519844 -0.00132486398797482 -0.00117372709792107)
(0.0404599979519844 -0.00100547459442168 -0.00145668152254075)
(0.0404599979519844 -0.0006276507047005 -0.00165497872512788)
(0.0404599979519844 -0.000213349921978079 -0.00175709475297481)
(0.0404599979519844 0.000213349921978079 -0.00175709475297481)
(0.0404599979519844 0.0006276507047005 -0.00165497872512788)
(0.0404599979519844 0.00100547459442168 -0.00145668152254075)
(0.0404599979519844 0.00132486398797482 -0.00117372709792107)
(0.0404599979519844 0.0015672572189942 -0.00082255998859182)
(0.0323186926543713 -0.0108874998986721 0)
(0.0322740264236927 -0.0108617106452584 -0.000424785306677222)
(0.0321426168084145 -0.0107858423143625 -0.000824883638415486)
(0.0319321043789387 -0.0106643028557301 -0.00117704272270203)
(0.0316547229886055 -0.0105041572824121 -0.00146079633850604)
(0.0313265919685364 -0.0103147113695741 -0.0016596537316218)
(0.0309667848050594 -0.0101069761440158 -0.00176205823663622)
(0.0305962078273296 -0.00989302340894938 -0.00176205823663622)
(0.0302364006638527 -0.00968528818339109 -0.0016596537316218)
(0.0299082715064287 -0.00949584320187569 -0.00146079633850604)
(0.0296308901160955 -0.00933569762855768 -0.00117704272270203)
(0.0294203776866198 -0.00921415816992521 -0.000824883638415486)
(0.0292889717966318 -0.00913828983902931 -0.000424785306677222)
(0.029244301840663 -0.00911250058561563 1.68739147754349e-18)
(0.0292889717966318 -0.00913828983902931 0.000424785306677222)
(0.0294203776866198 -0.00921415816992521 0.000824883638415486)
(0.0296308901160955 -0.00933569762855768 0.00117704272270203)
(0.0299082715064287 -0.00949584320187569 0.00146079633850604)
(0.0302364006638527 -0.00968528818339109 0.0016596537316218)
(0.0305962078273296 -0.00989302340894938 0.00176205823663622)
(0.0309667848050594 -0.0101069761440158 0.00176205823663622)
(0.0313265919685364 -0.0103147113695741 0.0016596537316218)
(0.0316547229886055 -0.0105041572824121 0.00146079633850604)
(0.0319321043789387 -0.0106643028557301 0.00117704272270203)
(0.0321426168084145 -0.0107858423143625 0.000824883638415486)
(0.0322740264236927 -0.0108617106452584 0.000424785306677222)
(0 0.00732189835980535 0)
(0 0.00722708180546761 0.00117451511323452)
(0 0.00694508757442236 0.00231861090287566)
(0 0.00648321909829974 0.00340265594422817)
(0 0.0058534387499094 0.00439857365563512)
(0 0.00507205724716187 0.00528057105839252)
(0 0.00415931222960353 0.00602580420672894)
(0 0.00313884322531521 0.00661497190594673)
(0 0.00203708000481129 0.0070328158326447)
(0 0.000882557360455394 0.00726851355284452)
(0 -0.000294823112199083 0.0073159602470696)
(0 -0.00146456772927195 0.00717392796650529)
(0 -0.0025963808875531 0.00684609403833747)
(0 -0.00366094917990267 0.00634094979614019)
(0 -0.00463070068508387 0.00567157892510295)
(0 -0.00548051996156573 0.00485531659796834)
(0 -0.00618839589878917 0.00391330476850271)
(0 -0.00673599587753415 0.00286993966437876)
(0 -0.00710913771763444 0.00175224500708282)
(0 -0.00729815568774939 0.000589167990256101)
(0 -0.00729815568774939 -0.000589167990256101)
(0 -0.00710913771763444 -0.00175224500708282)
(0 -0.00673599587753415 -0.00286993966437876)
(0 -0.00618839589878917 -0.00391330476850271)
(0 -0.00548051996156573 -0.00485531659796834)
(0 -0.00463070068508387 -0.00567157892510295)
(0 -0.00366094917990267 -0.00634094979614019)
(0 -0.0025963808875531 -0.00684609403833747)
(0 -0.00146456772927195 -0.00717392796650529)
(0 -0.000294823112199083 -0.0073159602470696)
(0 0.000882557360455394 -0.00726851355284452)
(0 0.00203708000481129 -0.0070328158326447)
(0 0.00313884322531521 -0.00661497190594673)
(0 0.00415931222960353 -0.00602580420672894)
(0 0.00507205724716187 -0.00528057105839252)
(0 0.0058534387499094 -0.00439857365563512)
(0 0.00648321909829974 -0.00340265594422817)
(0 0.00694508757442236 -0.00231861090287566)
(0 0.00722708180546761 -0.00117451511323452)
(0.0575000010430813 0.00171856698580086 0.000423588731791824)
(0.0575000010430813 0.00176999997347593 0)
(0.0575000010430813 0.0015672572189942 0.00082255998859182)
(0.0575000010430813 0.00132486398797482 0.00117372709792107)
(0.0575000010430813 0.00100547459442168 0.00145668152254075)
(0.0575000010430813 0.0006276507047005 0.00165497872512788)
(0.0575000010430813 0.000213349921978079 0.00175709475297481)
(0.0575000010430813 -0.000213349921978079 0.00175709475297481)
(0.0575000010430813 -0.0006276507047005 0.00165497872512788)
(0.0575000010430813 -0.00100547459442168 0.00145668152254075)
(0.0575000010430813 -0.00132486398797482 0.00117372709792107)
(0.0575000010430813 -0.0015672572189942 0.00082255998859182)
(0.0575000010430813 -0.00171856698580086 0.000423588731791824)
(0.0575000010430813 -0.00176999997347593 1.78883825203549e-18)
(0.0575000010430813 -0.00171856698580086 -0.000423588731791824)
(0.0575000010430813 -0.0015672572189942 -0.00082255998859182)
(0.0575000010430813 -0.00132486398797482 -0.00117372709792107)
(0.0575000010430813 -0.00100547459442168 -0.00145668152254075)
(0.0575000010430813 -0.0006276507047005 -0.00165497872512788)
(0.0575000010430813 -0.000213349921978079 -0.00175709475297481)
(0.0575000010430813 0.000213349921978079 -0.00175709475297481)
(0.0575000010430813 0.0006276507047005 -0.00165497872512788)
(0.0575000010430813 0.00100547459442168 -0.00145668152254075)
(0.0575000010430813 0.00132486398797482 -0.00117372709792107)
(0.0575000010430813 0.0015672572189942 -0.00082255998859182)
(0.0575000010430813 0.00171856698580086 -0.000423588731791824)
(0.0925000011920929 0.00411883695051074 0.000906624598428607)
(0.0925000011920929 0.00421743839979172 0)
(0.0925000011920929 0.00411883695051074 -0.000906624598428607)
(0.0925000011920929 0.00382764334790409 0.00177085632458329)
(0.0925000011920929 0.00335747329518199 0.00255228485912085)
(0.0925000011920929 0.00273031182587147 0.00321437139064074)
(0.0925000011920929 0.00197548372671008 0.00372615759260952)
(0.0925000011920929 0.00112828437704593 0.00406371243298054)
(0.0925000011920929 0.000228327509830706 0.00421125302091241)
(0.0925000011920929 -0.000682305661030114 0.00416187988594174)
(0.0925000011920929 -0.00156103493645787 0.00391790177673101)
(0.0925000011920929 -0.00236677192151546 0.00349072739481926)
(0.0925000011920929 -0.00306184124201536 0.00290033011697233)
(0.0925000011920929 -0.00361374230124056 0.00217431667260826)
(0.0925000011920929 -0.00399666884914041 0.00134663446806371)
(0.0925000011920929 -0.00419271551072598 0.000455985311418772)
(0.0925000011920929 -0.00419271551072598 -0.000455985311418772)
(0.0925000011920929 -0.00399666884914041 -0.00134663446806371)
(0.0925000011920929 -0.00361374230124056 -0.00217431667260826)
(0.0925000011920929 -0.00306184124201536 -0.00290033011697233)
(0.0925000011920929 -0.00236677192151546 -0.00349072739481926)
(0.0925000011920929 -0.00156103493645787 -0.00391790177673101)
(0.0925000011920929 -0.000682305661030114 -0.00416187988594174)
(0.0925000011920929 0.000228327509830706 -0.00421125302091241)
(0.0925000011920929 0.00112828437704593 -0.00406371243298054)
(0.0925000011920929 0.00197548372671008 -0.00372615759260952)
(0.0925000011920929 0.00273031182587147 -0.00321437139064074)
(0.0925000011920929 0.00335747329518199 -0.00255228485912085)
(0.0925000011920929 0.00382764334790409 -0.00177085632458329)
)

// edges

410
(
(0 1)
(4 0)
(5 4)
(6 5)
(7 6)
(8 7)
(9 8)
(10 11)
(12 9)
(13 12)
(14 13)
(16 14)
(17 16)
(18 17)
(19 18)
(11 19)
(41 10)
(43 41)
(44 43)
(46 44)
(47 46)
(48 47)
(49 48)
(50 49)
(51 50)
(52 51)
(53 52)
(54 53)
(55 54)
(56 55)
(57 56)
(58 57)
(1 58)
(85 86)
(86 87)
(88 85)
(87 89)
(90 88)
(89 91)
(92 90)
(91 93)
(94 92)
(95 94)
(93 96)
(97 95)
(96 98)
(99 97)
(98 100)
(101 99)
(100 102)
(103 101)
(102 104)
(105 103)
(104 106)
(107 105)
(106 108)
(109 107)
(108 110)
(111 109)
(110 112)
(113 111)
(112 114)
(115 113)
(114 116)
(117 115)
(116 118)
(119 117)
(118 120)
(120 119)
(153 154)
(155 153)
(156 155)
(157 156)
(158 157)
(159 158)
(160 159)
(161 160)
(162 161)
(163 162)
(164 163)
(165 164)
(166 165)
(167 166)
(168 167)
(169 168)
(183 169)
(190 183)
(197 190)
(206 197)
(210 206)
(211 210)
(212 211)
(213 212)
(214 213)
(215 214)
(216 215)
(217 216)
(218 217)
(219 218)
(220 219)
(221 220)
(222 221)
(223 222)
(224 223)
(154 224)
(225 226)
(227 228)
(228 225)
(226 229)
(230 227)
(229 231)
(232 230)
(231 233)
(234 232)
(235 236)
(233 235)
(237 238)
(238 234)
(236 239)
(239 240)
(241 237)
(240 242)
(243 241)
(242 244)
(245 243)
(244 246)
(247 245)
(246 248)
(249 247)
(248 250)
(251 249)
(250 252)
(253 251)
(252 254)
(255 253)
(254 256)
(257 255)
(256 258)
(259 257)
(258 260)
(261 259)
(260 262)
(262 263)
(263 261)
(290 291)
(291 292)
(292 293)
(293 294)
(294 295)
(295 296)
(296 297)
(297 298)
(298 299)
(299 300)
(300 301)
(301 302)
(302 303)
(303 304)
(304 305)
(305 306)
(306 307)
(307 308)
(308 309)
(309 310)
(310 311)
(311 312)
(312 313)
(313 314)
(314 315)
(315 290)
(316 317)
(317 318)
(318 319)
(319 320)
(320 321)
(321 322)
(322 323)
(323 324)
(324 325)
(325 326)
(326 327)
(327 328)
(328 329)
(329 330)
(330 331)
(331 332)
(332 333)
(333 334)
(334 335)
(335 336)
(336 337)
(337 338)
(338 339)
(339 340)
(340 341)
(341 342)
(342 343)
(343 344)
(344 345)
(345 346)
(346 347)
(347 348)
(348 349)
(349 350)
(350 351)
(351 352)
(352 353)
(353 354)
(354 316)
(381 382)
(382 383)
(384 381)
(385 384)
(386 385)
(387 386)
(388 387)
(389 388)
(390 389)
(391 390)
(392 391)
(393 392)
(394 393)
(395 394)
(396 395)
(397 396)
(398 397)
(399 398)
(400 399)
(401 400)
(402 401)
(403 402)
(404 403)
(405 404)
(406 405)
(407 406)
(408 407)
(409 408)
(383 409)
(2 3)
(15 2)
(3 20)
(20 21)
(21 22)
(22 23)
(23 24)
(24 25)
(25 26)
(26 27)
(27 28)
(28 29)
(29 30)
(30 31)
(31 32)
(32 33)
(33 34)
(34 35)
(35 36)
(36 37)
(37 38)
(38 39)
(39 40)
(40 42)
(42 45)
(45 15)
(59 60)
(60 61)
(62 59)
(61 63)
(64 62)
(63 65)
(66 64)
(65 67)
(68 66)
(67 69)
(70 68)
(69 71)
(72 70)
(71 73)
(74 75)
(75 72)
(73 76)
(76 77)
(78 74)
(77 79)
(79 80)
(81 78)
(80 82)
(83 84)
(84 81)
(82 83)
(121 122)
(123 121)
(122 124)
(124 125)
(125 126)
(126 127)
(127 128)
(128 129)
(129 130)
(130 131)
(131 132)
(132 133)
(133 134)
(134 135)
(135 136)
(136 137)
(137 138)
(138 139)
(139 140)
(140 141)
(141 142)
(142 143)
(143 144)
(144 145)
(145 146)
(146 147)
(147 148)
(148 149)
(149 150)
(150 151)
(151 152)
(152 123)
(170 171)
(171 172)
(173 170)
(172 174)
(175 173)
(174 176)
(177 175)
(178 177)
(179 178)
(180 179)
(176 181)
(181 182)
(184 180)
(182 185)
(186 184)
(185 187)
(188 186)
(189 188)
(187 191)
(192 189)
(191 193)
(194 192)
(195 194)
(196 195)
(193 198)
(198 199)
(199 200)
(200 201)
(202 196)
(201 203)
(204 202)
(205 204)
(203 207)
(207 208)
(208 209)
(209 205)
(264 265)
(265 266)
(267 264)
(268 267)
(269 268)
(270 269)
(271 270)
(272 271)
(273 272)
(274 273)
(275 274)
(276 275)
(277 276)
(278 277)
(279 278)
(280 279)
(281 280)
(282 281)
(283 282)
(284 283)
(285 284)
(286 285)
(287 286)
(288 287)
(289 288)
(266 289)
(355 356)
(357 355)
(358 357)
(359 358)
(360 359)
(361 360)
(362 361)
(363 362)
(364 363)
(365 364)
(366 365)
(367 366)
(368 367)
(369 368)
(370 369)
(371 370)
(372 371)
(373 372)
(374 373)
(375 374)
(376 375)
(377 376)
(378 377)
(379 378)
(380 379)
(356 380)
)

// concaveStart mixedStart nonFeatureStart
0 0 0
// internalStart flatStart openStart multipleStart
238 410 410 410
// normals

795
(
(-0.124595962144962 0.921133514019646 0.368766722423526)
(-1 0 0)
(-0.13817795765647 -0.983186222526474 -0.119380500300546)
(-1 0 0)
(-0.144342096565946 0.83244392587868 0.53497894297499)
(-1 0 0)
(-0.133680532525069 0.717238067661585 0.683885275116295)
(-1 0 -0)
(-0.123194511861934 0.575638339008387 0.808370963673712)
(-1 0 -0)
(-0.136003390451856 0.411555287364651 0.901179961621318)
(-1 0 0)
(-0.141335185522276 0.233392356914812 0.96205632530904)
(-1 0 0)
(-0.123895475067301 0.0472154188718485 0.991171335077142)
(-1 0 0)
(-0.138555245364569 -0.985870273668714 -0.0941395107186133)
(-1 0 0)