/*--------------------------------*- C++ -*----------------------------------*\
| =========                 |                                                 |
| \\      /  F ield         | OpenFOAM: The Open Source CFD Toolbox           |
|  \\    /   O peration     | Version:  v1906                                 |
|   \\  /    A nd           | Web:      www.OpenFOAM.com                      |
|    \\/     M anipulation  |                                                 |
\*---------------------------------------------------------------------------*/
FoamFile
{
    version     2.0;
    format      ascii;
    class       extendedFeatureEdgeMesh;
    location    "constant/extendedFeatureEdgeMesh";
    object      MeshRefinement.extendedFeatureEdgeMesh;
}
// * * * * * * * * * * * * * * * * * * * * * * * * * * * * * * * * * * * * * //

// points

307
(
(0.0190549995750189 0.00273010088130832 0)
(0.0190549995750189 0.00265076896175742 0.000653355906251818)
(0.0190549995750189 0.00265076896175742 -0.000653355906251818)
(0.0190549995750189 0.00241738418117166 0.00126874109264463)
(0.0190549995750189 0.00204350962303579 0.00181039166636765)
(0.0190549995750189 0.00155087397433817 0.00224682874977589)
(0.0190549995750189 0.000968107080552727 0.00255268858745694)
(0.0190549995750189 0.000329077272908762 0.00271019525825977)
(0.0190549995750189 -0.000329077272908762 0.00271019525825977)
(0.0190549995750189 -0.000968107080552727 0.00255268858745694)
(0.0190549995750189 -0.00155087397433817 0.00224682874977589)
(0.0190549995750189 -0.00204350962303579 0.00181039166636765)
(0.0190549995750189 -0.00241738418117166 0.00126874109264463)
(0.0190549995750189 -0.00265076896175742 0.000653355906251818)
(0.0190549995750189 -0.00273010088130832 2.75915750650714e-18)
(0.0190549995750189 -0.00265076896175742 -0.000653355906251818)
(0.0190549995750189 -0.00241738418117166 -0.00126874109264463)
(0.0190549995750189 -0.00204350962303579 -0.00181039166636765)
(0.0190549995750189 -0.00155087397433817 -0.00224682874977589)
(0.0190549995750189 -0.000968107080552727 -0.00255268858745694)
(0.0190549995750189 -0.000329077272908762 -0.00271019525825977)
(0.0190549995750189 0.000329077272908762 -0.00271019525825977)
(0.0190549995750189 0.000968107080552727 -0.00255268858745694)
(0.0190549995750189 0.00155087397433817 -0.00224682874977589)
(0.0190549995750189 0.00204350962303579 -0.00181039166636765)
(0.0190549995750189 0.00241738418117166 -0.00126874109264463)
(0.0190549995750189 0.000698776915669441 -0.00101235311012715)
(0.0190549995750189 0.00092074362328276 -0.000815707666333765)
(0.0190549995750189 0.00108920014463365 -0.000571656331885606)
(0.0190549995750189 0.000436199741670862 -0.00115016428753734)
(0.0190549995750189 0.00119435635861009 -0.000294382392894477)
(0.0190549995750189 0.000148272258229554 -0.00122113188263029)
(0.0190549995750189 0.00123010075185448 0)
(0.0190549995750189 -0.000148272258229554 -0.00122113188263029)
(0.0190549995750189 0.00119435635861009 0.000294382392894477)
(0.0190549995750189 -0.000436199741670862 -0.00115016428753734)
(0.0190549995750189 0.00108920014463365 0.000571656331885606)
(0.0190549995750189 -0.000698776915669441 -0.00101235311012715)
(0.0190549995750189 0.00092074362328276 0.000815707666333765)
(0.0190549995750189 -0.00092074362328276 -0.000815707666333765)
(0.0190549995750189 0.000698776915669441 0.00101235311012715)
(0.0190549995750189 0.000436199741670862 0.00115016428753734)
(0.0190549995750189 -0.00108920014463365 -0.000571656331885606)
(0.0190549995750189 0.000148272258229554 0.00122113188263029)
(0.0190549995750189 -0.00119435635861009 -0.000294382392894477)
(0.0190549995750189 -0.000148272258229554 0.00122113188263029)
(0.0190549995750189 -0.00123010075185448 1.2431929036631e-18)
(0.0190549995750189 -0.00108920014463365 0.000571656331885606)
(0.0190549995750189 -0.00119435635861009 0.000294382392894477)
(0.0190549995750189 -0.000436199741670862 0.00115016428753734)
(0.0190549995750189 -0.000698776915669441 0.00101235311012715)
(0.0190549995750189 -0.00092074362328276 0.000815707666333765)
(0.00526157626882195 0.0031686401925981 0)
(0.00526157626882195 0.00307656521908939 0.000758305191993713)
(0.00526157626882195 0.00307656521908939 -0.000758305191993713)
(0.00526157626882195 0.00280569144524634 0.00147254054900259)
(0.00526157626882195 0.00237176101654768 0.00210119690746069)
(0.00526157626882195 0.00179999263491482 0.00260773976333439)
(0.00526157626882195 0.00112361530773342 0.00296272989362478)
(0.00526157626882195 0.000381937366910279 0.00314553710632026)
(0.00526157626882195 -0.000381937366910279 0.00314553710632026)
(0.00526157626882195 -0.00112361530773342 0.00296272989362478)
(0.00526157626882195 -0.00179999263491482 0.00260773976333439)
(0.00526157626882195 -0.00237176101654768 0.00210119690746069)
(0.00526157626882195 -0.00280569144524634 0.00147254054900259)
(0.00526157626882195 -0.00307656521908939 0.000758305191993713)
(0.00526157626882195 -0.0031686401925981 3.20236439423065e-18)
(0.00526157626882195 -0.00307656521908939 -0.000758305191993713)
(0.00526157626882195 -0.00280569144524634 -0.00147254054900259)
(0.00526157626882195 -0.00237176101654768 -0.00210119690746069)
(0.00526157626882195 -0.00179999263491482 -0.00260773976333439)
(0.00526157626882195 -0.00112361530773342 -0.00296272989362478)
(0.00526157626882195 -0.000381937366910279 -0.00314553710632026)
(0.00526157626882195 0.000381937366910279 -0.00314553710632026)
(0.00526157626882195 0.00112361530773342 -0.00296272989362478)
(0.00526157626882195 0.00179999263491482 -0.00260773976333439)
(0.00526157626882195 0.00237176101654768 -0.00210119690746069)
(0.00526157626882195 0.00280569144524634 -0.00147254054900259)
(0.0399999991059303 0.00177010078914464 0)
(0.0399999991059303 0.00171866489108652 0.000423612829763442)
(0.0399999991059303 0.00171866489108652 -0.000423612829763442)
(0.0399999991059303 0.00156734650954604 0.000822606845758855)
(0.0399999991059303 0.00132493954151869 0.0011737939203158)
(0.0399999991059303 0.00100553187076002 0.00145676429383457)
(0.0399999991059303 0.00062768638599664 0.00165507290512323)
(0.0399999991059303 0.000213362072827294 0.00175719475373626)
(0.0399999991059303 -0.000213362072827294 0.00175719475373626)
(0.0399999991059303 -0.00062768638599664 0.00165507290512323)
(0.0399999991059303 -0.00100553187076002 0.00145676429383457)
(0.0399999991059303 -0.00132493954151869 0.0011737939203158)
(0.0399999991059303 -0.00156734650954604 0.000822606845758855)
(0.0399999991059303 -0.00171866489108652 0.000423612829763442)
(0.0399999991059303 -0.00177010078914464 1.78894020204598e-18)
(0.0399999991059303 -0.00171866489108652 -0.000423612829763442)
(0.0399999991059303 -0.00156734650954604 -0.000822606845758855)
(0.0399999991059303 -0.00132493954151869 -0.0011737939203158)
(0.0399999991059303 -0.00100553187076002 -0.00145676429383457)
(0.0399999991059303 -0.00062768638599664 -0.00165507290512323)
(0.0399999991059303 -0.000213362072827294 -0.00175719475373626)
(0.0399999991059303 0.000213362072827294 -0.00175719475373626)
(0.0399999991059303 0.00062768638599664 -0.00165507290512323)
(0.0399999991059303 0.00100553187076002 -0.00145676429383457)
(0.0399999991059303 0.00132493954151869 -0.0011737939203158)
(0.0399999991059303 0.00156734650954604 -0.000822606845758855)
(0.0229599997401237 0.00177010078914464 0)
(0.0229599997401237 0.00171866489108652 0.000423612829763442)
(0.0229599997401237 0.00156734650954604 0.000822606845758855)
(0.0229599997401237 0.00132493954151869 0.0011737939203158)
(0.0229599997401237 0.00100553187076002 0.00145676429383457)
(0.0229599997401237 0.00062768638599664 0.00165507290512323)
(0.0229599997401237 0.000213362072827294 0.00175719475373626)
(0.0229599997401237 -0.000213362072827294 0.00175719475373626)
(0.0229599997401237 -0.00062768638599664 0.00165507290512323)
(0.0229599997401237 -0.00100553187076002 0.00145676429383457)
(0.0229599997401237 -0.00132493954151869 0.0011737939203158)
(0.0229599997401237 -0.00156734650954604 0.000822606845758855)
(0.0229599997401237 -0.00171866489108652 0.000423612829763442)
(0.0229599997401237 -0.00177010078914464 1.78894020204598e-18)
(0.0229599997401237 -0.00171866489108652 -0.000423612829763442)
(0.0229599997401237 -0.00156734650954604 -0.000822606845758855)
(0.0229599997401237 -0.00132493954151869 -0.0011737939203158)
(0.0229599997401237 -0.00100553187076002 -0.00145676429383457)
(0.0229599997401237 -0.00062768638599664 -0.00165507290512323)
(0.0229599997401237 -0.000213362072827294 -0.00175719475373626)
(0.0229599997401237 0.000213362072827294 -0.00175719475373626)
(0.0229599997401237 0.00062768638599664 -0.00165507290512323)
(0.0229599997401237 0.00100553187076002 -0.00145676429383457)
(0.0229599997401237 0.00132493954151869 -0.0011737939203158)
(0.0229599997401237 0.00156734650954604 -0.000822606845758855)
(0.0229599997401237 0.00171866489108652 -0.000423612829763442)
(0.0209599994122982 0.0046662618406117 0)
(0.0209599994122982 0.0045707430690527 0.000939311576075852)
(0.0209599994122982 0.0045707430690527 -0.000939311576075852)
(0.0209599994122982 0.00428809737786651 0.00184016767889261)
(0.0209599994122982 0.00382989691570401 0.00266568711958826)
(0.0209599994122982 0.00321489991620183 0.0033820727840066)
(0.0209599994122982 0.00246828445233405 0.00395999616011977)
(0.0209599994122982 0.00162061711307615 0.00437579676508904)
(0.0209599994122982 0.000706601596903056 0.00461245188489556)
(0.0209599994122982 -0.000236342282732949 0.00466027250513434)
(0.0209599994122982 -0.00116961030289531 0.00451730098575354)
(0.0209599994122982 -0.0020549944601953 0.00418939115479589)
(0.0209599994122982 -0.00285624666139483 0.00368996639735997)
(0.0209599994122982 -0.00354056409560144 0.0030394745990634)
(0.0209599994122982 -0.00407993048429489 0.00226454599760473)
(0.0209599994122982 -0.00445226347073913 0.00139690656214952)
(0.0209599994122982 -0.00464232079684734 0.000472077867016196)
(0.0209599994122982 -0.00464232079684734 -0.000472077867016196)
(0.0209599994122982 -0.00445226347073913 -0.00139690656214952)
(0.0209599994122982 -0.00407993048429489 -0.00226454599760473)
(0.0209599994122982 -0.00354056409560144 -0.0030394745990634)
(0.0209599994122982 -0.00285624666139483 -0.00368996639735997)
(0.0209599994122982 -0.0020549944601953 -0.00418939115479589)
(0.0209599994122982 -0.00116961030289531 -0.00451730098575354)
(0.0209599994122982 -0.000236342282732949 -0.00466027250513434)
(0.0209599994122982 0.000706601596903056 -0.00461245188489556)
(0.0209599994122982 0.00162061711307615 -0.00437579676508904)
(0.0209599994122982 0.00246828445233405 -0.00395999616011977)
(0.0209599994122982 0.00321489991620183 -0.0033820727840066)
(0.0209599994122982 0.00382989691570401 -0.00266568711958826)
(0.0209599994122982 0.00428809737786651 -0.00184016767889261)
(0.00526157626882195 0.00321653857827187 -0.00338379666209221)
(0.00526157626882195 0.00383184920065105 -0.00266704568639398)
(0.00526157626882195 0.00246954243630171 -0.00396201480180025)
(0.00526157626882195 0.00429028319194913 -0.00184110563714057)
(0.00526157626882195 0.000706961785908788 -0.00461480300873518)
(0.00526157626882195 0.00162144331261516 -0.00437802681699395)
(0.00526157626882195 0.0045730727724731 -0.000939790392294526)
(0.00526157626882195 -0.000236462743487209 -0.0046626478433609)
(0.00526157626882195 0.00466863997280598 0)
(0.00526157626882195 0.0045730727724731 0.000939790392294526)
(0.00526157626882195 -0.00117020646575838 -0.00451960368081927)
(0.00526157626882195 0.00429028319194913 0.00184110563714057)
(0.00526157626882195 -0.00205604173243046 -0.00419152621179819)
(0.00526157626882195 0.00383184920065105 0.00266704568639398)
(0.00526157626882195 -0.0028577025514096 -0.00369184743613005)
(0.00526157626882195 0.00321653857827187 0.00338379666209221)
(0.00526157626882195 -0.0035423687659204 -0.00304102362133563)
(0.00526157626882195 0.00246954243630171 0.00396201480180025)
(0.00526157626882195 -0.00408200966194272 -0.00226570013910532)
(0.00526157626882195 0.00162144331261516 0.00437802681699395)
(0.00526157626882195 -0.00445453263819218 -0.00139761867467314)
(0.00526157626882195 0.000706961785908788 0.00461480300873518)
(0.00526157626882195 -0.00464468682184815 -0.000472318468382582)
(0.00526157626882195 -0.000236462743487209 0.0046626478433609)
(0.00526157626882195 -0.00464468682184815 0.000472318468382582)
(0.00526157626882195 -0.00117020646575838 0.00451960368081927)
(0.00526157626882195 -0.00445453263819218 0.00139761867467314)
(0.00526157626882195 -0.00205604173243046 0.00419152621179819)
(0.00526157626882195 -0.00408200966194272 0.00226570013910532)
(0.00526157626882195 -0.0028577025514096 0.00369184743613005)
(0.00526157626882195 -0.0035423687659204 0.00304102362133563)
(0.0123938694596291 0.00356743717566133 0.000845498172566295)
(0.0123938694596291 0.00366626167669892 0)
(0.0123938694596291 0.00356743717566133 -0.000845498172566295)
(0.0123938694596291 0.00327629107050598 0.00164541520643979)
(0.0123938694596291 0.00280851940624416 0.00235662749037147)
(0.0123938694596291 0.00218933960422873 0.00294079352170229)
(0.0123938694596291 0.00145213212817907 0.00336642051115632)
(0.0123938694596291 0.000636639655567706 0.00361056276597083)
(0.0123938694596291 -0.000213174163945951 0.00366005906835198)
(0.0123938694596291 -0.00105149566661566 0.00351224024780095)
(0.0123938694596291 -0.00183313083834946 0.00317507586441934)
(0.0123938694596291 -0.00251594139263034 0.00266674207523465)
(0.0123938694596291 -0.00306311692111194 0.00201464374549687)
(0.0123938694596291 -0.00344515894539654 0.00125393539201468)
(0.0123938694596291 -0.00364147173240781 0.000425626989454031)
(0.0123938694596291 -0.00364147173240781 -0.000425626989454031)
(0.0123938694596291 -0.00344515894539654 -0.00125393539201468)
(0.0123938694596291 -0.00306311692111194 -0.00201464374549687)
(0.0123938694596291 -0.00251594139263034 -0.00266674207523465)
(0.0123938694596291 -0.00183313083834946 -0.00317507586441934)
(0.0123938694596291 -0.00105149566661566 -0.00351224024780095)
(0.0123938694596291 -0.000213174163945951 -0.00366005906835198)
(0.0123938694596291 0.000636639655567706 -0.00361056276597083)
(0.0123938694596291 0.00145213212817907 -0.00336642051115632)
(0.0123938694596291 0.00218933960422873 -0.00294079352170229)
(0.0123938694596291 0.00280851940624416 -0.00235662749037147)
(0.0123938694596291 0.00327629107050598 -0.00164541520643979)
(0.0599999986588955 0.00307656521908939 0.000758305191993713)
(0.0599999986588955 0.0031686401925981 0)
(0.0599999986588955 0.00307656521908939 -0.000758305191993713)
(0.0599999986588955 0.00280569144524634 0.00147254054900259)
(0.0599999986588955 0.00237176101654768 0.00210119690746069)
(0.0599999986588955 0.00179999263491482 0.00260773976333439)
(0.0599999986588955 0.00112361530773342 0.00296272989362478)
(0.0599999986588955 0.000381937366910279 0.00314553710632026)
(0.0599999986588955 -0.000381937366910279 0.00314553710632026)
(0.0599999986588955 -0.00112361530773342 0.00296272989362478)
(0.0599999986588955 -0.00179999263491482 0.00260773976333439)
(0.0599999986588955 -0.00237176101654768 0.00210119690746069)
(0.0599999986588955 -0.00280569144524634 0.00147254054900259)
(0.0599999986588955 -0.00307656521908939 0.000758305191993713)
(0.0599999986588955 -0.0031686401925981 3.20236439423065e-18)
(0.0599999986588955 -0.00307656521908939 -0.000758305191993713)
(0.0599999986588955 -0.00280569144524634 -0.00147254054900259)
(0.0599999986588955 -0.00237176101654768 -0.00210119690746069)
(0.0599999986588955 -0.00179999263491482 -0.00260773976333439)
(0.0599999986588955 -0.00112361530773342 -0.00296272989362478)
(0.0599999986588955 -0.000381937366910279 -0.00314553710632026)
(0.0599999986588955 0.000381937366910279 -0.00314553710632026)
(0.0599999986588955 0.00112361530773342 -0.00296272989362478)
(0.0599999986588955 0.00179999263491482 -0.00260773976333439)
(0.0599999986588955 0.00237176101654768 -0.00210119690746069)
(0.0599999986588955 0.00280569144524634 -0.00147254054900259)
(0.0123938694596291 0.0046662618406117 0)
(0.0123938694596291 0.0045707430690527 0.000939311576075852)
(0.0123938694596291 0.00428809737786651 0.00184016767889261)
(0.0123938694596291 0.00382989691570401 0.00266568711958826)
(0.0123938694596291 0.00321489991620183 0.0033820727840066)
(0.0123938694596291 0.00246828445233405 0.00395999616011977)
(0.0123938694596291 0.00162061711307615 0.00437579676508904)
(0.0123938694596291 0.000706601596903056 0.00461245188489556)
(0.0123938694596291 -0.000236342282732949 0.00466027250513434)
(0.0123938694596291 -0.00116961030289531 0.00451730098575354)
(0.0123938694596291 -0.0020549944601953 0.00418939115479589)
(0.0123938694596291 -0.00285624666139483 0.00368996639735997)
(0.0123938694596291 -0.00354056409560144 0.0030394745990634)
(0.0123938694596291 -0.00407993048429489 0.00226454599760473)
(0.0123938694596291 -0.00445226347073913 0.00139690656214952)
(0.0123938694596291 -0.00464232079684734 0.000472077867016196)
(0.0123938694596291 -0.00464232079684734 -0.000472077867016196)
(0.0123938694596291 -0.00445226347073913 -0.00139690656214952)
(0.0123938694596291 -0.00407993048429489 -0.00226454599760473)
(0.0123938694596291 -0.00354056409560144 -0.0030394745990634)
(0.0123938694596291 -0.00285624666139483 -0.00368996639735997)
(0.0123938694596291 -0.0020549944601953 -0.00418939115479589)
(0.0123938694596291 -0.00116961030289531 -0.00451730098575354)
(0.0123938694596291 -0.000236342282732949 -0.00466027250513434)
(0.0123938694596291 0.000706601596903056 -0.00461245188489556)
(0.0123938694596291 0.00162061711307615 -0.00437579676508904)
(0.0123938694596291 0.00246828445233405 -0.00395999616011977)
(0.0123938694596291 0.00321489991620183 -0.0033820727840066)
(0.0123938694596291 0.00382989691570401 -0.00266568711958826)
(0.0123938694596291 0.00428809737786651 -0.00184016767889261)
(0.0123938694596291 0.0045707430690527 -0.000939311576075852)
(0 0.00466863997280598 0)
(0 0.0045730727724731 0.000939790392294526)
(0 0.00429028319194913 0.00184110563714057)
(0 0.00383184920065105 0.00266704568639398)
(0 0.00321653857827187 0.00338379666209221)
(0 0.00246954243630171 0.00396201480180025)
(0 0.00162144331261516 0.00437802681699395)
(0 0.000706961785908788 0.00461480300873518)
(0 -0.000236462743487209 0.0046626478433609)
(0 -0.00117020646575838 0.00451960368081927)
(0 -0.00205604173243046 0.00419152621179819)
(0 -0.0028577025514096 0.00369184743613005)
(0 -0.0035423687659204 0.00304102362133563)
(0 -0.00408200966194272 0.00226570013910532)
(0 -0.00445453263819218 0.00139761867467314)
(0 -0.00464468682184815 0.000472318468382582)
(0 -0.00464468682184815 -0.000472318468382582)
(0 -0.00445453263819218 -0.00139761867467314)
(0 -0.00408200966194272 -0.00226570013910532)
(0 -0.0035423687659204 -0.00304102362133563)
(0 -0.0028577025514096 -0.00369184743613005)
(0 -0.00205604173243046 -0.00419152621179819)
(0 -0.00117020646575838 -0.00451960368081927)
(0 -0.000236462743487209 -0.0046626478433609)
(0 0.000706961785908788 -0.00461480300873518)
(0 0.00162144331261516 -0.00437802681699395)
(0 0.00246954243630171 -0.00396201480180025)
(0 0.00321653857827187 -0.00338379666209221)
(0 0.00383184920065105 -0.00266704568639398)
(0 0.00429028319194913 -0.00184110563714057)
(0 0.0045730727724731 -0.000939790392294526)
)

// edges

307
(
(130 131)
(132 130)
(131 133)
(133 134)
(134 135)
(135 136)
(136 137)
(137 138)
(138 139)
(139 140)
(140 141)
(141 142)
(142 143)
(143 144)
(144 145)
(145 146)
(146 147)
(147 148)
(148 149)
(149 150)
(150 151)
(151 152)
(152 153)
(153 154)
(154 155)
(155 156)
(156 157)
(157 158)
(158 159)
(159 160)
(160 132)
(161 162)
(163 161)
(162 164)
(165 166)
(166 163)
(164 167)
(168 165)
(169 170)
(167 169)
(171 168)
(170 172)
(173 171)
(172 174)
(175 173)
(174 176)
(177 175)
(176 178)
(179 177)
(178 180)
(181 179)
(180 182)
(183 181)
(182 184)
(185 183)
(184 186)
(187 185)
(186 188)
(189 187)
(188 190)
(191 189)
(190 191)
(0 1)
(2 0)
(1 3)
(3 4)
(4 5)
(5 6)
(6 7)
(7 8)
(8 9)
(9 10)
(10 11)
(11 12)
(12 13)
(13 14)
(14 15)
(15 16)
(16 17)
(17 18)
(18 19)
(19 20)
(20 21)
(21 22)
(22 23)
(23 24)
(24 25)
(25 2)
(26 27)
(27 28)
(29 26)
(28 30)
(31 29)
(30 32)
(33 31)
(32 34)
(35 33)
(34 36)
(37 35)
(36 38)
(39 37)
(38 40)
(40 41)
(42 39)
(41 43)
(44 42)
(43 45)
(46 44)
(47 48)
(48 46)
(45 49)
(49 50)
(50 51)
(51 47)
(52 53)
(54 52)
(53 55)
(55 56)
(56 57)
(57 58)
(58 59)
(59 60)
(60 61)
(61 62)
(62 63)
(63 64)
(64 65)
(65 66)
(66 67)
(67 68)
(68 69)
(69 70)
(70 71)
(71 72)
(72 73)
(73 74)
(74 75)
(75 76)
(76 77)
(77 54)
(78 79)
(80 78)
(79 81)
(81 82)
(82 83)
(83 84)
(84 85)
(85 86)
(86 87)
(87 88)
(88 89)
(89 90)
(90 91)
(91 92)
(92 93)
(93 94)
(94 95)
(95 96)
(96 97)
(97 98)
(98 99)
(99 100)
(100 101)
(101 102)
(102 103)
(103 80)
(104 105)
(105 106)
(106 107)
(107 108)
(108 109)
(109 110)
(110 111)
(111 112)
(112 113)
(113 114)
(114 115)
(115 116)
(116 117)
(117 118)
(118 119)
(119 120)
(120 121)
(121 122)
(122 123)
(123 124)
(124 125)
(125 126)
(126 127)
(127 128)
(128 129)
(129 104)
(192 193)
(193 194)
(195 192)
(196 195)
(197 196)
(198 197)
(199 198)
(200 199)
(201 200)
(202 201)
(203 202)
(204 203)
(205 204)
(206 205)
(207 206)
(208 207)
(209 208)
(210 209)
(211 210)
(212 211)
(213 212)
(214 213)
(215 214)
(216 215)
(217 216)
(218 217)
(194 218)
(219 220)
(220 221)
(222 219)
(223 222)
(224 223)
(225 224)
(226 225)
(227 226)
(228 227)
(229 228)
(230 229)
(231 230)
(232 231)
(233 232)
(234 233)
(235 234)
(236 235)
(237 236)
(238 237)
(239 238)
(240 239)
(241 240)
(242 241)
(243 242)
(244 243)
(221 244)
(245 246)
(246 247)
(247 248)
(248 249)
(249 250)
(250 251)
(251 252)
(252 253)
(253 254)
(254 255)
(255 256)
(256 257)
(257 258)
(258 259)
(259 260)
(260 261)
(261 262)
(262 263)
(263 264)
(264 265)
(265 266)
(266 267)
(267 268)
(268 269)
(269 270)
(270 271)
(271 272)
(272 273)
(273 274)
(274 275)
(275 245)
(276 277)
(277 278)
(278 279)
(279 280)
(280 281)
(281 282)
(282 283)
(283 284)
(284 285)
(285 286)
(286 287)
(287 288)
(288 289)
(289 290)
(290 291)
(291 292)
(292 293)
(293 294)
(294 295)
(295 296)
(296 297)
(297 298)
(298 299)
(299 300)
(300 301)
(301 302)
(302 303)
(303 304)
(304 305)
(305 306)
(306 276)
)

// concaveStart mixedStart nonFeatureStart
0 0 0
// internalStart flatStart openStart multipleStart
62 192 192 307
// normals

499
(
(-0.13817757387924 -0.983186258217099 -0.119380650567446)
(-1 0 0)
(-0.13817757387924 -0.983186258217099 0.119380650567446)
(-1 0 0)
(-0.153590570434148 -0.923921894839307 -0.350397301516803)
(-1 0 0)
(-0.155786155796834 -0.812935781474365 -0.561129297809969)
(-1 0 0)
(-0.144792507556401 -0.656134683864431 -0.740622985320908)
(-1 0 -0)
(-0.13007629332056 -0.460775087537235 -0.877933070695618)
(-1 0 -0)
(-0.149927706441042 -0.236610626927094 -0.959967235933861)
(-1 0 -0)
(-0.156517415471442 0 -0.987675198966816)
(-1 0 0)
(-0.149927706441042 0.236610626927094 -0.959967235933861)
(-1 0 0)
(-0.13007629332056 0.460775087537235 -0.877933070695618)
(-1 0 0)
(-0.144792507556401 0.656134683864431 -0.740622985320908)
(-1 0 0)
(-0.155786155796834 0.812935781474365 -0.561129297809969)
(-1 0 -0)
(-0.153590570434148 0.923921894839307 -0.350397301516803)
(-1 0 -0)
(-0.13817757387924 0.983186258217099 -0.119380650567446)
(-1 0 -0)
(-0.138177573879241 0.983186258217099 0.119380650567445)
(-1 0 0)
(-0.153590570434148 0.923921894839307 0.350397301516803)
(-1 0 0)
(-0.155786155796834 0.812935781474365 0.561129297809969)
(-1 0 0)
(-0.144792507556401 0.656134683864431 0.740622985320908)
(-1 0 0)
(-0.13007629332056 0.460775087537235 0.877933070695618)
(-1 0 0)
(-0.149927706441042 0.236610626927094 0.959967235933861)
(-1 0 -0)
(-0.156517415471442 0 0.987675198966816)
(-1 0 -0)
(-0.149927706441042 -0.236610626927094 0.959967235933861)
(-1 0 0)
(-0.13007629332056 -0.460775087537235 0.877933070695618)
(-1 0 0)
(-0.144792507556401 -0.656134683864431 0.740622985320908)
(-1 0 0)
(-0.155786155796834 -0.812935781474365 0.561129297809969)
(-1 0 0)
(-0.153590570434148 -0.923921894839307 0.350397301516803)
(-1 0 0)
(-1 0 0)
(0.133946925106717 0.657147120895134 -0.741765382552793)
(-1 0 -0)
(0.141560953089589 0.814695965534366 -0.562344183131999)
(-1 0 0)
(0.145787266677724 0.4597581709123 -0.875995717543194)
(-1 0 -0)
(0.146632248370748 0.924909634806313 -0.350772221220826)
(-1 0 0)
(0.144097183677015 0.2368175662489 -0.960808743701003)
(-1 0 -0)
(0.138177848766718 0.983186287348577 -0.119380092477448)
(-1 0 0)
(0.128866878501144 0 -0.991661901872494)
(-1 0 0)
(0.138177848766718 0.983186287348577 0.119380092477448)
(-1 0 0)
(0.144097183677015 -0.2368175662489 -0.960808743701003)
(-1 0 0)
(0.146632248370748 0.924909634806313 0.350772221220826)
(-1 0 -0)
(0.145787266677724 -0.4597581709123 -0.875995717543194)
(-1 0 0)
(0.141560953089589 0.814695965534366 0.562344183131999)
(-1 0 0)
(0.133946925106717 -0.657147120895134 -0.741765382552793)
(-1 0 0)
(0.133946925106717 0.657147120895134 0.741765382552793)
(-1 0 0)
(0.145787266677724 0.4597581709123 0.875995717543194)
(-1 0 0)
(0.141560953089589 -0.814695965534366 -0.562344183131999)
(-1 0 0)
(0.144097183677015 0.2368175662489 0.960808743701003)
(-1 0 0)
(0.146632248370748 -0.924909634806313 -0.350772221220826)
(-1 0 0)
(0.128866878501144 0 0.991661901872494)
(-1 0 0)
(0.138177848766718 -0.983186287348577 -0.119380092477448)
(-1 0 0)
(0.146632248370748 -0.924909634806313 0.350772221220826)
(-1 0 0)
(0.138177848766718 -0.983186287348577 0.119380092477449)
(-1 0 0)
(0.144097183677015 -0.2368175662489 0.960808743701003)
(-1 0 0)
(0.145787266677724 -0.4597581709123 0.875995717543194)
(-1 0 0)
(0.133946925106717 -0.657147120895134 0.741765382552793)
(-1 0 0)
(0.141560953089589 -0.814695965534366 0.562344183131999)
(0.138177982519916 0.983186220314899 0.119380489736089)
(1 0 0)
(0.138177982519916 0.983186220314899 -0.119380489736089)
(1 0 0)
(0.119808287400736 0.928281349666892 0.352050720963211)
(1 0 0)
(0.130851063959696 0.815907713971613 0.563180789216245)
(1 0 0)
(0.147293912768493 0.655890022067154 0.740346393395751)
(1 0 0)
(0.121653151638271 0.461271443794469 0.878879494490708)
(1 0 0)
(0.12533773875244 0.237428475587066 0.963285092911142)
(1 0 0)
(0.158170053402487 -0 0.98741188680644)
(1 0 0)
(0.12533773875244 -0.237428475587066 0.963285092911142)
(1 0 0)
(0.121653151638271 -0.461271443794469 0.878879494490708)
(1 0 0)
(0.147293912768493 -0.655890022067154 0.740346393395751)
(1 0 0)
(0.130851063959696 -0.815907713971613 0.563180789216245)
(1 0 0)
(0.119808287400736 -0.928281349666892 0.352050720963211)
(1 0 0)
(0.138177982519916 -0.983186220314899 0.11938048973609)
(1 0 0)
(0.138177982519916 -0.983186220314899 -0.119380489736089)
(1 0 0)
(0.119808287400736 -0.928281349666892 -0.352050720963211)
(1 0 0)
(0.130851063959696 -0.815907713971613 -0.563180789216245)
(1 0 0)
(0.147293912768493 -0.655890022067154 -0.740346393395751)
(1 0 0)
(0.121653151638271 -0.461271443794469 -0.878879494490708)
(1 0 0)
(0.12533773875244 -0.237428475587066 -0.963285092911142)
(1 0 0)
(0.158170053402487 0 -0.98741188680644)
(1 0 0)
(0.12533773875244 0.237428475587066 -0.963285092911142)
(1 0 0)
(0.121653151638271 0.461271443794469 -0.878879494490708)
(1 0 0)
(0.147293912768493 0.655890022067154 -0.740346393395751)
(1 0 0)
(0.130851063959696 0.815907713971613 -0.563180789216245)
(1 0 0)
(0.119808287400736 0.928281349666892 -0.352050720963211)
(1 0 0)
(-0.069250386345248 0.990325691483639 0.120247281792507)
(0 0.992708877420959 0.120536652888737)
(-0.069250386345248 0.990325691483639 -0.120247281792507)
(0 0.992708877420959 -0.120536652888737)
(-0.08112413962609 0.931934503095297 0.353435929003332)
(0 0.935016312003107 0.354604704266749)
(-0.0740002343119512 0.820727392494495 0.566507292566445)
(0 0.822983829813183 0.568064799002742)
(-0.0633128161651618 0.661792084836823 0.747009185858224)
(0 0.663122486860985 0.74851090000033)
(-0.0799370520273115 0.463236023074083 0.88262248704624)
(0 0.46472317740313 0.8854560228404)
(-0.0775623649660996 0.23859489663534 0.968016815370703)
(0 0.239315835062226 0.970941775333861)
(-0.0561883753824237 0 0.998420185328744)
(0 -0 1)
(-0.0775623649660996 -0.23859489663534 0.968016815370703)
(0 -0.239315835062226 0.970941775333861)
(-0.0799370520273115 -0.463236023074083 0.88262248704624)
(0 -0.46472317740313 0.8854560228404)
(-0.0633128161651618 -0.661792084836823 0.747009185858224)
(0 -0.663122486860985 0.74851090000033)
(-0.0740002343119512 -0.820727392494495 0.566507292566445)
(0 -0.822983829813183 0.568064799002742)
(-0.08112413962609 -0.931934503095297 0.353435929003332)
(0 -0.935016312003107 0.354604704266749)
(-0.0692503863452479 -0.990325691483639 0.120247281792508)
(0 -0.992708877420959 0.120536652888737)
(-0.0692503863452482 -0.990325691483639 -0.120247281792507)
(-0 -0.992708877420959 -0.120536652888736)
(-0.08112413962609 -0.931934503095297 -0.353435929003332)
(0 -0.935016312003107 -0.354604704266749)
(-0.0740002343119512 -0.820727392494495 -0.566507292566445)
(0 -0.822983829813183 -0.568064799002742)
(-0.0633128161651618 -0.661792084836823 -0.747009185858224)
(0 -0.663122486860985 -0.74851090000033)
(-0.0799370520273115 -0.463236023074083 -0.88262248704624)
(0 -0.46472317740313 -0.8854560228404)
(-0.0775623649660996 -0.23859489663534 -0.968016815370703)
(0 -0.239315835062226 -0.970941775333861)
(-0.0561883753824237 0 -0.998420185328744)
(-0 -0 -1)
(-0.0775623649660996 0.23859489663534 -0.968016815370703)
(0 0.239315835062226 -0.970941775333861)
(-0.0799370520273115 0.463236023074083 -0.88262248704624)
(0 0.46472317740313 -0.8854560228404)
(-0.0633128161651618 0.661792084836823 -0.747009185858224)
(0 0.663122486860985 -0.74851090000033)
(-0.0740002343119512 0.820727392494495 -0.566507292566445)
(0 0.822983829813183 -0.568064799002742)
(-0.08112413962609 0.931934503095297 -0.353435929003332)
(0 0.935016312003107 -0.354604704266749)
(0 0.992708877420959 0.120536652888737)
(0.820909285122307 0.566894959970895 0.0688334944600381)
(0 0.935016312003107 0.354604704266749)