/*--------------------------------*- C++ -*----------------------------------*\
| =========                 |                                                 |
| \\      /  F ield         | OpenFOAM: The Open Source CFD Toolbox           |
|  \\    /   O peration     | Version:  v1906                                 |
|   \\  /    A nd           | Web:      www.OpenFOAM.com                      |
|    \\/     M anipulation  |                                                 |
\*---------------------------------------------------------------------------*/
FoamFile
{
    version     2.0;
    format      ascii;
    class       extendedFeatureEdgeMesh;
    location    "constant/extendedFeatureEdgeMesh";
    object      Revolution_Geometry.extendedFeatureEdgeMesh;
}
// * * * * * * * * * * * * * * * * * * * * * * * * * * * * * * * * * * * * * //

// points

348
(
(0.0145550007000566 -0.00473029166460037 -0.00243863486684859)
(0.0145550007000566 -0.00510632432997227 -0.00149935192894191)
(0.0365549996495247 0.00222999998368323 0)
(0.0365549996495247 0.00216520018875599 0.000533673970494419)
(0.0145550007000566 -0.00418329471722245 -0.00328977918252349)
(0.0145550007000566 -0.00348510220646858 -0.00402202224358916)
(0.0145550007000566 -0.00266094924882054 -0.00460889888927341)
(0.0145550007000566 -0.00174062245059758 -0.00502919824793935)
(0.0145550007000566 -0.000757385161705315 -0.00526772905141115)
(0.0145550007000566 0.000253226142376661 -0.00531587051227689)
(0.0145550007000566 0.00522572454065084 0.00100717588793486)
(0.0145550007000566 0.00532189849764109 0)
(0.0145550007000566 0.00125468499027193 -0.00517188245430589)
(0.0145550007000566 0.00221079657785594 -0.0048409691080451)
(0.0145550007000566 0.00308700394816697 -0.00433509051799774)
(0.0365549996495247 0.00216520018875599 -0.000533673970494419)
(0.0145550007000566 0.0038516391068697 -0.00367253040894866)
(0.0145550007000566 0.00447706552222371 -0.00287723541259766)
(0.0145550007000566 0.00494067976251245 -0.00197794986888766)
(0.0145550007000566 0.00522572454065084 -0.00100717588793486)
(0.0365549996495247 0.00197456683963537 0.00103633268736303)
(0.0365549996495247 0.001669178949669 0.00147876353003085)
(0.0365549996495247 0.00126678438391536 0.00183525402098894)
(0.0365549996495247 0.000790768943261355 0.00208508619107306)
(0.0365549996495247 0.000268796808086336 0.00221374072134495)
(0.0365549996495247 -0.000268796808086336 0.00221374072134495)
(0.0365549996495247 -0.000790768943261355 0.00208508619107306)
(0.0365549996495247 -0.00126678438391536 0.00183525402098894)
(0.0365549996495247 -0.001669178949669 0.00147876353003085)
(0.0365549996495247 -0.00197456683963537 0.00103633268736303)
(0.0365549996495247 -0.00216520018875599 0.000533673970494419)
(0.0365549996495247 -0.00222999998368323 2.25373402221529e-18)
(0.0365549996495247 -0.00216520018875599 -0.000533673970494419)
(0.0365549996495247 -0.00197456683963537 -0.00103633268736303)
(0.0365549996495247 -0.001669178949669 -0.00147876353003085)
(0.0365549996495247 -0.00126678438391536 -0.00183525402098894)
(0.0365549996495247 -0.000790768943261355 -0.00208508619107306)
(0.0365549996495247 -0.000268796808086336 -0.00221374072134495)
(0.0365549996495247 0.000268796808086336 -0.00221374072134495)
(0.0365549996495247 0.000790768943261355 -0.00208508619107306)
(0.0365549996495247 0.00126678438391536 -0.00183525402098894)
(0.0145550007000566 0.00494067976251245 0.00197794986888766)
(0.0365549996495247 0.001669178949669 -0.00147876353003085)
(0.0145550007000566 0.00447706552222371 0.00287723541259766)
(0.0145550007000566 0.0038516391068697 0.00367253040894866)
(0.0365549996495247 0.00197456683963537 -0.00103633268736303)
(0.0145550007000566 0.00308700394816697 0.00433509051799774)
(0.0145550007000566 0.00221079657785594 0.0048409691080451)
(0.0145550007000566 0.00125468499027193 0.00517188245430589)
(0.0145550007000566 0.000253226142376661 0.00531587051227689)
(0.0145550007000566 -0.000757385161705315 0.00526772905141115)
(0.0145550007000566 -0.00174062245059758 0.00502919824793935)
(0.0145550007000566 -0.00266094924882054 0.00460889888927341)
(0.0145550007000566 -0.00348510220646858 0.00402202224358916)
(0.0145550007000566 -0.00418329471722245 0.00328977918252349)
(0.0145550007000566 -0.00473029166460037 0.00243863486684859)
(0.0145550007000566 -0.00510632432997227 0.00149935192894191)
(0.0145550007000566 -0.00529780052602291 0.00050587864825502)
(0.0145550007000566 -0.00529780052602291 -0.00050587864825502)
(0.0365549996495247 0.000698719639331102 -0.00101227022241801)
(0.0365549996495247 0.000920668244361877 -0.000815640843939036)
(0.0365549996495247 0.00108911097049713 -0.000571609474718571)
(0.0365549996495247 0.000436164031270891 -0.00115006999112666)
(0.0365549996495247 0.00119425845332444 -0.000294358265819028)
(0.0365549996495247 0.000148260121932253 -0.00122103188186884)
(0.0365549996495247 0.0012300000526011 0)
(0.0365549996495247 -0.000148260121932253 -0.00122103188186884)
(0.0365549996495247 0.00119425845332444 0.000294358265819028)
(0.0365549996495247 -0.000436164031270891 -0.00115006999112666)
(0.0365549996495247 0.00108911097049713 0.000571609474718571)
(0.0365549996495247 -0.000698719639331102 -0.00101227022241801)
(0.0365549996495247 0.000920668244361877 0.000815640843939036)
(0.0365549996495247 -0.000920668244361877 -0.000815640843939036)
(0.0365549996495247 0.000698719639331102 0.00101227022241801)
(0.0365549996495247 -0.00119425845332444 -0.000294358265819028)
(0.0365549996495247 -0.00108911097049713 -0.000571609474718571)
(0.0365549996495247 0.000436164031270891 0.00115006999112666)
(0.0365549996495247 0.000148260121932253 0.00122103188186884)
(0.0365549996495247 -0.0012300000526011 1.24309105705018e-18)
(0.0365549996495247 -0.000148260121932253 0.00122103188186884)
(0.0365549996495247 -0.000436164031270891 0.00115006999112666)
(0.0365549996495247 -0.00119425845332444 0.000294358265819028)
(0.0365549996495247 -0.000698719639331102 0.00101227022241801)
(0.0365549996495247 -0.000920668244361877 0.000815640843939036)
(0.0365549996495247 -0.00108911097049713 0.000571609474718571)
(0.00999999977648258 0.00496206199750304 0)
(0.00999999977648258 0.0048667173832655 0.000968050269875675)
(0.00999999977648258 0.0048667173832655 -0.000968050269875675)
(0.00999999977648258 0.00458434736356139 0.00189889885950834)
(0.00999999977648258 0.00412580324336886 0.0027567739598453)
(0.00999999977648258 0.00350870750844479 0.00350870750844479)
(0.00999999977648258 0.0027567739598453 0.00412580324336886)
(0.00999999977648258 0.00189889885950834 0.00458434736356139)
(0.00999999977648258 0.000968050269875675 0.0048667173832655)
(0.00999999977648258 3.03838664283877e-19 0.00496206199750304)
(0.00999999977648258 -0.000968050269875675 0.0048667173832655)
(0.00999999977648258 -0.00189889885950834 0.00458434736356139)
(0.00999999977648258 -0.0027567739598453 0.00412580324336886)
(0.00999999977648258 -0.00350870750844479 0.00350870750844479)
(0.00999999977648258 -0.00412580324336886 0.0027567739598453)
(0.00999999977648258 -0.00458434736356139 0.00189889885950834)
(0.00999999977648258 -0.0048667173832655 0.000968050269875675)
(0.00999999977648258 -0.00496206199750304 -3.79951889973218e-18)
(0.00999999977648258 -0.0048667173832655 -0.000968050269875675)
(0.00999999977648258 -0.00458434736356139 -0.00189889885950834)
(0.00999999977648258 -0.00412580324336886 -0.0027567739598453)
(0.00999999977648258 -0.00350870750844479 -0.00350870750844479)
(0.00999999977648258 -0.0027567739598453 -0.00412580324336886)
(0.00999999977648258 -0.00189889885950834 -0.00458434736356139)
(0.00999999977648258 -0.000968050269875675 -0.0048667173832655)
(0.00999999977648258 1.23100729246927e-17 -0.00496206199750304)
(0.00999999977648258 0.000968050269875675 -0.0048667173832655)
(0.00999999977648258 0.00189889885950834 -0.00458434736356139)
(0.00999999977648258 0.0027567739598453 -0.00412580324336886)
(0.00999999977648258 0.00350870750844479 -0.00350870750844479)
(0.00999999977648258 0.00412580324336886 -0.0027567739598453)
(0.00999999977648258 0.00458434736356139 -0.00189889885950834)
(0.00999999977648258 0.00507205724716187 -0.00528057105839252)
(0.00999999977648258 0.0058534387499094 -0.00439857365563512)
(0.00999999977648258 0.00313884322531521 -0.00661497190594673)
(0.00999999977648258 0.00415931222960353 -0.00602580420672894)
(0.00999999977648258 0.00648321909829974 -0.00340265594422817)
(0.00999999977648258 0.00203708000481129 -0.0070328158326447)
(0.00999999977648258 0.00694508757442236 -0.00231861090287566)
(0.00999999977648258 0.000882557360455394 -0.00726851355284452)
(0.00999999977648258 0.00722708180546761 -0.00117451511323452)
(0.00999999977648258 -0.000294823112199083 -0.0073159602470696)
(0.00999999977648258 0.00732189835980535 0)
(0.00999999977648258 0.00722708180546761 0.00117451511323452)
(0.00999999977648258 -0.0025963808875531 -0.00684609403833747)
(0.00999999977648258 -0.00146456772927195 -0.00717392796650529)
(0.00999999977648258 0.00694508757442236 0.00231861090287566)
(0.00999999977648258 0.00648321909829974 0.00340265594422817)
(0.00999999977648258 -0.00366094917990267 -0.00634094979614019)
(0.00999999977648258 0.0058534387499094 0.00439857365563512)
(0.00999999977648258 -0.00463070068508387 -0.00567157892510295)
(0.00999999977648258 0.00507205724716187 0.00528057105839252)
(0.00999999977648258 -0.00548051996156573 -0.00485531659796834)
(0.00999999977648258 0.00415931222960353 0.00602580420672894)
(0.00999999977648258 -0.00618839589878917 -0.00391330476850271)
(0.00999999977648258 0.00313884322531521 0.00661497190594673)
(0.00999999977648258 -0.00673599587753415 -0.00286993966437876)
(0.00999999977648258 0.00203708000481129 0.0070328158326447)
(0.00999999977648258 -0.00710913771763444 -0.00175224500708282)
(0.00999999977648258 0.000882557360455394 0.00726851355284452)
(0.00999999977648258 -0.00729815568774939 -0.000589167990256101)
(0.00999999977648258 -0.000294823112199083 0.0073159602470696)
(0.00999999977648258 -0.00729815568774939 0.000589167990256101)
(0.00999999977648258 -0.00146456772927195 0.00717392796650529)
(0.00999999977648258 -0.00710913771763444 0.00175224500708282)
(0.00999999977648258 -0.0025963808875531 0.00684609403833747)
(0.00999999977648258 -0.00673599587753415 0.00286993966437876)
(0.00999999977648258 -0.00366094917990267 0.00634094979614019)
(0.00999999977648258 -0.00618839589878917 0.00391330476850271)
(0.00999999977648258 -0.00463070068508387 0.00567157892510295)
(0.00999999977648258 -0.00548051996156573 0.00485531659796834)
(0 0.00732189835980535 0)
(0 0.00722708180546761 0.00117451511323452)
(0 0.00694508757442236 0.00231861090287566)
(0 0.00648321909829974 0.00340265594422817)
(0 0.0058534387499094 0.00439857365563512)
(0 0.00507205724716187 0.00528057105839252)
(0 0.00415931222960353 0.00602580420672894)
(0 0.00313884322531521 0.00661497190594673)
(0 0.00203708000481129 0.0070328158326447)
(0 0.000882557360455394 0.00726851355284452)
(0 -0.000294823112199083 0.0073159602470696)
(0 -0.00146456772927195 0.00717392796650529)
(0 -0.0025963808875531 0.00684609403833747)
(0 -0.00366094917990267 0.00634094979614019)
(0 -0.00463070068508387 0.00567157892510295)
(0 -0.00548051996156573 0.00485531659796834)
(0 -0.00618839589878917 0.00391330476850271)
(0 -0.00673599587753415 0.00286993966437876)
(0 -0.00710913771763444 0.00175224500708282)
(0 -0.00729815568774939 0.000589167990256101)
(0 -0.00729815568774939 -0.000589167990256101)
(0 -0.00710913771763444 -0.00175224500708282)
(0 -0.00673599587753415 -0.00286993966437876)
(0 -0.00618839589878917 -0.00391330476850271)
(0 -0.00548051996156573 -0.00485531659796834)
(0 -0.00463070068508387 -0.00567157892510295)
(0 -0.00366094917990267 -0.00634094979614019)
(0 -0.0025963808875531 -0.00684609403833747)
(0 -0.00146456772927195 -0.00717392796650529)
(0 -0.000294823112199083 -0.0073159602470696)
(0 0.000882557360455394 -0.00726851355284452)
(0 0.00203708000481129 -0.0070328158326447)
(0 0.00313884322531521 -0.00661497190594673)
(0 0.00415931222960353 -0.00602580420672894)
(0 0.00507205724716187 -0.00528057105839252)
(0 0.0058534387499094 -0.00439857365563512)
(0 0.00648321909829974 -0.00340265594422817)
(0 0.00694508757442236 -0.00231861090287566)
(0 0.00722708180546761 -0.00117451511323452)
(0.0925000011920929 -0.00399666884914041 -0.00134663446806371)
(0.0925000011920929 -0.00361374230124056 -0.00217431667260826)
(0.0925000011920929 -0.00306184124201536 -0.00290033011697233)
(0.0925000011920929 -0.00236677192151546 -0.00349072739481926)
(0.0925000011920929 -0.00156103493645787 -0.00391790177673101)
(0.0925000011920929 -0.000682305661030114 -0.00416187988594174)
(0.0925000011920929 0.000228327509830706 -0.00421125302091241)
(0.0925000011920929 -0.00419271551072598 0.000455985311418772)
(0.0925000011920929 -0.00419271551072598 -0.000455985311418772)
(0.0925000011920929 -0.00306184124201536 0.00290033011697233)
(0.0925000011920929 -0.00361374230124056 0.00217431667260826)
(0.0925000011920929 -0.00399666884914041 0.00134663446806371)
(0.0925000011920929 -0.00156103493645787 0.00391790177673101)
(0.0925000011920929 -0.00236677192151546 0.00349072739481926)
(0.0925000011920929 0.00273031182587147 -0.00321437139064074)
(0.0925000011920929 0.00335747329518199 -0.00255228485912085)
(0.0925000011920929 0.00382764334790409 -0.00177085632458329)
(0.0925000011920929 0.00411883695051074 -0.000906624598428607)
(0.0925000011920929 -0.000682305661030114 0.00416187988594174)
(0.0925000011920929 0.000228327509830706 0.00421125302091241)
(0.0925000011920929 0.00421743839979172 0)
(0.0925000011920929 0.00411883695051074 0.000906624598428607)
(0.0925000011920929 0.00382764334790409 0.00177085632458329)
(0.0925000011920929 0.00197548372671008 0.00372615759260952)
(0.0925000011920929 0.00112828437704593 0.00406371243298054)
(0.0925000011920929 0.00197548372671008 -0.00372615759260952)
(0.0925000011920929 0.00335747329518199 0.00255228485912085)
(0.0925000011920929 0.00112828437704593 -0.00406371243298054)
(0.0925000011920929 0.00273031182587147 0.00321437139064074)
(0.0575000010430813 0.00176999997347593 0)
(0.0575000010430813 0.00171856698580086 0.000423588731791824)
(0.0575000010430813 0.00171856698580086 -0.000423588731791824)
(0.0575000010430813 0.0015672572189942 0.00082255998859182)
(0.0575000010430813 0.00132486398797482 0.00117372709792107)
(0.0575000010430813 0.00100547459442168 0.00145668152254075)
(0.0575000010430813 0.0006276507047005 0.00165497872512788)
(0.0575000010430813 0.000213349921978079 0.00175709475297481)
(0.0575000010430813 -0.000213349921978079 0.00175709475297481)
(0.0575000010430813 -0.0006276507047005 0.00165497872512788)
(0.0575000010430813 -0.00100547459442168 0.00145668152254075)
(0.0575000010430813 -0.00132486398797482 0.00117372709792107)
(0.0575000010430813 -0.0015672572189942 0.00082255998859182)
(0.0575000010430813 -0.00171856698580086 0.000423588731791824)
(0.0575000010430813 -0.00176999997347593 1.78883825203549e-18)
(0.0575000010430813 -0.00171856698580086 -0.000423588731791824)
(0.0575000010430813 -0.0015672572189942 -0.00082255998859182)
(0.0575000010430813 -0.00132486398797482 -0.00117372709792107)
(0.0575000010430813 -0.00100547459442168 -0.00145668152254075)
(0.0575000010430813 -0.0006276507047005 -0.00165497872512788)
(0.0575000010430813 -0.000213349921978079 -0.00175709475297481)
(0.0575000010430813 0.000213349921978079 -0.00175709475297481)
(0.0575000010430813 0.0006276507047005 -0.00165497872512788)
(0.0575000010430813 0.00100547459442168 -0.00145668152254075)
(0.0575000010430813 0.00132486398797482 -0.00117372709792107)
(0.0575000010430813 0.0015672572189942 -0.00082255998859182)
(0.0404599979519844 0.00176999997347593 0)
(0.0404599979519844 0.00171856698580086 0.000423588731791824)
(0.0404599979519844 0.0015672572189942 0.00082255998859182)
(0.0404599979519844 0.00132486398797482 0.00117372709792107)
(0.0404599979519844 0.00100547459442168 0.00145668152254075)
(0.0404599979519844 0.0006276507047005 0.00165497872512788)
(0.0404599979519844 0.000213349921978079 0.00175709475297481)
(0.0404599979519844 -0.000213349921978079 0.00175709475297481)
(0.0404599979519844 -0.0006276507047005 0.00165497872512788)
(0.0404599979519844 -0.00100547459442168 0.00145668152254075)
(0.0404599979519844 -0.00132486398797482 0.00117372709792107)
(0.0404599979519844 -0.0015672572189942 0.00082255998859182)
(0.0404599979519844 -0.00171856698580086 0.000423588731791824)
(0.0404599979519844 -0.00176999997347593 1.78883825203549e-18)
(0.0404599979519844 -0.00171856698580086 -0.000423588731791824)
(0.0404599979519844 -0.0015672572189942 -0.00082255998859182)
(0.0404599979519844 -0.00132486398797482 -0.00117372709792107)
(0.0404599979519844 -0.00100547459442168 -0.00145668152254075)
(0.0404599979519844 -0.0006276507047005 -0.00165497872512788)
(0.0404599979519844 -0.000213349921978079 -0.00175709475297481)
(0.0404599979519844 0.000213349921978079 -0.00175709475297481)
(0.0404599979519844 0.0006276507047005 -0.00165497872512788)
(0.0404599979519844 0.00100547459442168 -0.00145668152254075)
(0.0404599979519844 0.00132486398797482 -0.00117372709792107)
(0.0404599979519844 0.0015672572189942 -0.00082255998859182)
(0.0404599979519844 0.00171856698580086 -0.000423588731791824)
(0.0374599993228912 0.00632189866155386 0)
(0.0374599993228912 0.00622585462406278 0.00109778624027967)
(0.0374599993228912 0.00622585462406278 -0.00109778624027967)
(0.0374599993228912 0.00594064127653837 0.00216221669688821)
(0.0374599993228912 0.00547492457553744 0.00316094933077693)
(0.0374599993228912 0.0048428550362587 0.00406363792717457)
(0.0374599993228912 0.00406363792717457 0.0048428550362587)
(0.0374599993228912 0.00316094933077693 0.00547492457553744)
(0.0374599993228912 0.00216221669688821 0.00594064127653837)
(0.0374599993228912 0.00109778624027967 0.00622585462406278)
(0.0374599993228912 3.87104629297419e-19 0.00632189866155386)
(0.0374599993228912 -0.00109778624027967 0.00622585462406278)
(0.0374599993228912 -0.00216221669688821 0.00594064127653837)
(0.0374599993228912 -0.00316094933077693 0.00547492457553744)
(0.0374599993228912 -0.00406363792717457 0.0048428550362587)
(0.0374599993228912 -0.0048428550362587 0.00406363792717457)
(0.0374599993228912 -0.00547492457553744 0.00316094933077693)
(0.0374599993228912 -0.00594064127653837 0.00216221669688821)
(0.0374599993228912 -0.00622585462406278 0.00109778624027967)
(0.0374599993228912 -0.00632189866155386 9.1966693238003e-18)
(0.0374599993228912 -0.00622585462406278 -0.00109778624027967)
(0.0374599993228912 -0.00594064127653837 -0.00216221669688821)
(0.0374599993228912 -0.00547492457553744 -0.00316094933077693)
(0.0374599993228912 -0.0048428550362587 -0.00406363792717457)
(0.0374599993228912 -0.00406363792717457 -0.0048428550362587)
(0.0374599993228912 -0.00316094933077693 -0.00547492457553744)
(0.0374599993228912 -0.00216221669688821 -0.00594064127653837)
(0.0374599993228912 -0.00109778624027967 -0.00622585462406278)
(0.0374599993228912 -1.8006234664538e-17 -0.00632189866155386)
(0.0374599993228912 0.00109778624027967 -0.00622585462406278)
(0.0374599993228912 0.00216221669688821 -0.00594064127653837)
(0.0374599993228912 0.00316094933077693 -0.00547492457553744)
(0.0374599993228912 0.00406363792717457 -0.0048428550362587)
(0.0374599993228912 0.0048428550362587 -0.00406363792717457)
(0.0374599993228912 0.00547492457553744 -0.00316094933077693)
(0.0374599993228912 0.00594064127653837 -0.00216221669688821)
(0.0145550007000566 0.00632189866155386 0)
(0.0145550007000566 0.00622585462406278 0.00109778624027967)
(0.0145550007000566 0.00594064127653837 0.00216221669688821)
(0.0145550007000566 0.00547492457553744 0.00316094933077693)
(0.0145550007000566 0.0048428550362587 0.00406363792717457)
(0.0145550007000566 0.00406363792717457 0.0048428550362587)
(0.0145550007000566 0.00316094933077693 0.00547492457553744)
(0.0145550007000566 0.00216221669688821 0.00594064127653837)
(0.0145550007000566 0.00109778624027967 0.00622585462406278)
(0.0145550007000566 3.87104629297419e-19 0.00632189866155386)
(0.0145550007000566 -0.00109778624027967 0.00622585462406278)
(0.0145550007000566 -0.00216221669688821 0.00594064127653837)
(0.0145550007000566 -0.00316094933077693 0.00547492457553744)
(0.0145550007000566 -0.00406363792717457 0.0048428550362587)
(0.0145550007000566 -0.0048428550362587 0.00406363792717457)
(0.0145550007000566 -0.00547492457553744 0.00316094933077693)
(0.0145550007000566 -0.00594064127653837 0.00216221669688821)
(0.0145550007000566 -0.00622585462406278 0.00109778624027967)
(0.0145550007000566 -0.00632189866155386 9.1966693238003e-18)
(0.0145550007000566 -0.00622585462406278 -0.00109778624027967)
(0.0145550007000566 -0.00594064127653837 -0.00216221669688821)
(0.0145550007000566 -0.00547492457553744 -0.00316094933077693)
(0.0145550007000566 -0.0048428550362587 -0.00406363792717457)
(0.0145550007000566 -0.00406363792717457 -0.0048428550362587)
(0.0145550007000566 -0.00316094933077693 -0.00547492457553744)
(0.0145550007000566 -0.00216221669688821 -0.00594064127653837)
(0.0145550007000566 -0.00109778624027967 -0.00622585462406278)
(0.0145550007000566 -1.8006234664538e-17 -0.00632189866155386)
(0.0145550007000566 0.00109778624027967 -0.00622585462406278)
(0.0145550007000566 0.00216221669688821 -0.00594064127653837)
(0.0145550007000566 0.00316094933077693 -0.00547492457553744)
(0.0145550007000566 0.00406363792717457 -0.0048428550362587)
(0.0145550007000566 0.0048428550362587 -0.00406363792717457)
(0.0145550007000566 0.00547492457553744 -0.00316094933077693)
(0.0145550007000566 0.00594064127653837 -0.00216221669688821)
(0.0145550007000566 0.00622585462406278 -0.00109778624027967)
)

// edges

348
(
(0 1)
(4 0)
(5 4)
(6 5)
(7 6)
(8 7)
(9 8)
(10 11)
(12 9)
(13 12)
(14 13)
(16 14)
(17 16)
(18 17)
(19 18)
(11 19)
(41 10)
(43 41)
(44 43)
(46 44)
(47 46)
(48 47)
(49 48)
(50 49)
(51 50)
(52 51)
(53 52)
(54 53)
(55 54)
(56 55)
(57 56)
(58 57)
(1 58)
(117 118)
(119 120)
(120 117)
(118 121)
(122 119)
(121 123)
(124 122)
(123 125)
(126 124)
(127 128)
(125 127)
(129 130)
(130 126)
(128 131)
(131 132)
(133 129)
(132 134)
(135 133)
(134 136)
(137 135)
(136 138)
(139 137)
(138 140)
(141 139)
(140 142)
(143 141)
(142 144)
(145 143)
(144 146)
(147 145)
(146 148)
(149 147)
(148 150)
(151 149)
(150 152)
(153 151)
(152 154)
(154 155)
(155 153)
(156 157)
(157 158)
(158 159)
(159 160)
(160 161)
(161 162)
(162 163)
(163 164)
(164 165)
(165 166)
(166 167)
(167 168)
(168 169)
(169 170)
(170 171)
(171 172)
(172 173)
(173 174)
(174 175)
(175 176)
(176 177)
(177 178)
(178 179)
(179 180)
(180 181)
(181 182)
(182 183)
(183 184)
(184 185)
(185 186)
(186 187)
(187 188)
(188 189)
(189 190)
(190 191)
(191 192)
(192 193)
(193 194)
(194 156)
(195 196)
(196 197)
(197 198)
(199 200)
(200 201)
(202 203)
(203 195)
(204 205)
(205 206)
(206 202)
(207 208)
(208 204)
(209 210)
(210 211)
(211 212)
(198 199)
(213 207)
(214 213)
(215 216)
(216 217)
(218 219)
(219 214)
(220 209)
(212 215)
(217 221)
(201 222)
(222 220)
(223 218)
(221 223)
(276 277)
(278 276)
(277 279)
(279 280)
(280 281)
(281 282)
(282 283)
(283 284)
(284 285)
(285 286)
(286 287)
(287 288)
(288 289)
(289 290)
(290 291)
(291 292)
(292 293)
(293 294)
(294 295)
(295 296)
(296 297)
(297 298)
(298 299)
(299 300)
(300 301)
(301 302)
(302 303)
(303 304)
(304 305)
(305 306)
(306 307)
(307 308)
(308 309)
(309 310)
(310 311)
(311 278)
(312 313)
(313 314)
(314 315)
(315 316)
(316 317)
(317 318)
(318 319)
(319 320)
(320 321)
(321 322)
(322 323)
(323 324)
(324 325)
(325 326)
(326 327)
(327 328)
(328 329)
(329 330)
(330 331)
(331 332)
(332 333)
(333 334)
(334 335)
(335 336)
(336 337)
(337 338)
(338 339)
(339 340)
(340 341)
(341 342)
(342 343)
(343 344)
(344 345)
(345 346)
(346 347)
(347 312)
(2 3)
(15 2)
(3 20)
(20 21)
(21 22)
(22 23)
(23 24)
(24 25)
(25 26)
(26 27)
(27 28)
(28 29)
(29 30)
(30 31)
(31 32)
(32 33)
(33 34)
(34 35)
(35 36)
(36 37)
(37 38)
(38 39)
(39 40)
(40 42)
(42 45)
(45 15)
(59 60)
(60 61)
(62 59)
(61 63)
(64 62)
(63 65)
(66 64)
(65 67)
(68 66)
(67 69)
(70 68)
(69 71)
(72 70)
(71 73)
(74 75)
(75 72)
(73 76)
(76 77)
(78 74)
(77 79)
(79 80)
(81 78)
(80 82)
(83 84)
(84 81)
(82 83)
(85 86)
(87 85)
(86 88)
(88 89)
(89 90)
(90 91)
(91 92)
(92 93)
(93 94)
(94 95)
(95 96)
(96 97)
(97 98)
(98 99)
(99 100)
(100 101)
(101 102)
(102 103)
(103 104)
(104 105)
(105 106)
(106 107)
(107 108)
(108 109)
(109 110)
(110 111)
(111 112)
(112 113)
(113 114)
(114 115)
(115 116)
(116 87)
(224 225)
(226 224)
(225 227)
(227 228)
(228 229)
(229 230)
(230 231)
(231 232)
(232 233)
(233 234)
(234 235)
(235 236)
(236 237)
(237 238)
(238 239)
(239 240)
(240 241)
(241 242)
(242 243)
(243 244)
(244 245)
(245 246)
(246 247)
(247 248)
(248 249)
(249 226)
(250 251)
(251 252)
(252 253)
(253 254)
(254 255)
(255 256)
(256 257)
(257 258)
(258 259)
(259 260)
(260 261)
(261 262)
(262 263)
(263 264)
(264 265)
(265 266)
(266 267)
(267 268)
(268 269)
(269 270)
(270 271)
(271 272)
(272 273)
(273 274)
(274 275)
(275 250)
)

// concaveStart mixedStart nonFeatureStart
0 0 0
// internalStart flatStart openStart multipleStart
212 348 348 348
// normals

676
(
(-0.124595962144962 0.921133514019646 0.368766722423526)
(-1 0 0)
(-0.13817795765647 -0.983186222526474 -0.119380500300546)
(-1 0 0)
(-0.144342096565946 0.83244392587868 0.53497894297499)
(-1 0 0)
(-0.133680532525069 0.717238067661585 0.683885275116295)
(-1 0 -0)
(-0.123194511861934 0.575638339008387 0.808370963673712)
(-1 0 -0)
(-0.136003390451856 0.411555287364651 0.901179961621318)
(-1 0 0)
(-0.141335185522276 0.233392356914812 0.96205632530904)
(-1 0 0)
(-0.123895475067301 0.0472154188718485 0.991171335077142)
(-1 0 0)
(-0.138555245364569 -0.985870273668714 -0.0941395107186133)
(-1 0 0)
(-0.129725335087759 -0.14111228600491 0.981457416383837)
(-1 0 0)
(-0.151031956553127 -0.32331604783119 0.9341606292895)
(-1 0 0)
(-0.126695997341279 -0.495970817858541 0.859046606471633)
(-1 0 0)
(-0.13817795765647 -0.983186222526474 0.119380500300546)
(-1 0 0)
(-0.12552945281062 -0.649680700258919 0.749771527992459)
(-1 0 0)
(-0.147574781269124 -0.77744675050376 0.611390410510759)
(-1 0 -0)
(-0.131587670524296 -0.881106485102136 0.454242277729572)
(-1 0 -0)
(-0.123428271115013 -0.952156255248198 0.279578124110753)
(-1 0 -0)
(-0.138555245364569 -0.985870273668714 0.0941395107186133)
(-1 0 -0)
(-0.143506203252441 -0.92533825364639 -0.350934589299371)
(-1 0 0)
(-0.147231945334507 -0.814015043614184 -0.561873885354014)
(-1 0 0)
(-0.149359443408126 -0.65568440354584 -0.740114666529147)
(-1 0 -0)
(-0.149891185041333 -0.459472953468644 -0.875452590194184)
(-1 0 -0)
(-0.148827678951764 -0.236650360670843 -0.960128600121979)
(-1 0 0)
(-0.14616775209719 0 -0.989259818372734)
(-1 0 0)
(-0.141908307357851 0.236893663434916 -0.961115718593352)
(-1 0 0)
(-0.136044855155566 0.460402482997498 -0.877223660781809)
(-1 0 0)
(-0.140132250996786 0.656579504982115 -0.741125027149951)
(-1 0 0)
(-0.144925897793685 0.814295284396018 -0.562067321554191)
(-1 0 -0)
(-0.148118431079616 0.924702641897627 -0.350693533504772)
(-1 0 -0)
(-0.149713900075794 0.981520400682988 -0.119178232774283)
(-1 0 -0)
(-0.149713900075794 0.981520400682989 0.119178232774282)
(-1 0 0)
(-0.148118431079616 0.924702641897627 0.350693533504772)
(-1 0 0)
(-0.144925897793685 0.814295284396018 0.562067321554191)
(-1 0 0)
(-0.140132250996786 0.656579504982115 0.741125027149951)
(-1 0 0)
(-0.136044855155566 0.460402482997498 0.877223660781809)
(-1 0 0)
(-0.141908307357851 0.236893663434916 0.961115718593352)
(-1 0 -0)
(-0.14616775209719 0 0.989259818372734)
(-1 0 -0)
(-0.148827678951764 -0.236650360670843 0.960128600121979)
(-1 0 0)
(-0.149891185041333 -0.459472953468644 0.875452590194184)
(-1 0 0)
(-0.123428271115013 -0.952156255248198 -0.279578124110753)
(-1 0 0)
(-0.149359443408126 -0.65568440354584 0.740114666529147)
(-1 0 0)
(-0.131587670524296 -0.881106485102136 -0.454242277729572)
(-1 0 0)
(-0.147574781269124 -0.77744675050376 -0.611390410510759)
(-1 0 0)
(-0.147231945334507 -0.814015043614184 0.561873885354014)
(-1 0 0)
(-0.12552945281062 -0.649680700258919 -0.749771527992459)
(-1 0 0)
(-0.143506203252441 -0.92533825364639 0.350934589299371)
(-1 0 0)
(-0.126695997341279 -0.495970817858541 -0.859046606471633)
(-1 0 0)
(-0.151031956553127 -0.32331604783119 -0.9341606292895)
(-1 0 0)
(-0.129725335087759 -0.14111228600491 -0.981457416383837)
(-1 0 -0)
(-0.123895475067301 0.0472154188718485 -0.991171335077142)
(-1 0 -0)
(-0.141335185522276 0.233392356914812 -0.96205632530904)
(-1 0 -0)
(-0.136003390451856 0.411555287364651 -0.901179961621318)
(-1 0 -0)
(-0.123194511861934 0.575638339008387 -0.808370963673712)
(-1 0 0)
(-0.133680532525069 0.717238067661585 -0.683885275116295)
(-1 0 0)
(-0.144342096565946 0.83244392587868 -0.53497894297499)
(-1 0 0)
(-0.124595962144962 0.921133514019646 -0.368766722423526)
(-1 0 0)
(-0.128094775507362 0.973839516623694 -0.187692099859978)
(-1 0 0)
(-0.154712598389367 0.987959519362818 0)
(-1 0 0)
(-0.128094775507362 0.973839516623694 0.187692099859978)
(-1 0 0)
(-1 0 0)
(0.145054718159329 0.656109366176761 -0.740594104996013)
(-1 0 -0)
(0.143745252589068 0.814436898411811 -0.562165314532527)
(-1 0 0)
(0.14538209661974 0.459785643046637 -0.876048633598979)
(-1 0 -0)
(0.141453085843923 0.925614651962877 -0.351039229398757)
(-1 0 0)
(0.144727494863705 0.23679588575986 -0.960719345447816)
(-1 0 -0)
(0.138177690207134 0.983186255121246 -0.119380541419788)
(-1 0 0)
(0.143090482579681 0 -0.989709610843056)
(-1 0 0)
(0.138177690207134 0.983186255121246 0.119380541419788)
(-1 0 0)
(0.140470606072117 -0.2369426573143 -0.961314821468269)
(-1 0 0)
(0.141453085843923 0.925614651962877 0.351039229398757)
(-1 0 -0)
(0.136867296995905 -0.460349727537953 -0.877123407149055)
(-1 0 0)
(0.143745252589068 0.814436898411811 0.562165314532527)
(-1 0 0)
(0.139378777194026 -0.656650147081893 -0.741204520227195)
(-1 0 0)
(0.145054718159329 0.656109366176761 0.740594104996013)
(-1 0 0)
(0.144290823556574 -0.925231635690702 -0.350893970530235)
(-1 0 0)